thrombin_baum_01_1a_1zdv
     RDKit          3D

 52 54  0  0  0  0  0  0  0  0999 V2000
   13.3037  -14.1533   20.4522 C   0  0  0  0  0  0  0  0  0  0  0  0
   13.8120  -15.1023   20.3661 H   0  0  0  0  0  0  0  0  0  0  0  0
   13.8219  -13.0262   19.7986 C   0  0  0  0  0  0  0  0  0  0  0  0
   15.1005  -13.1686   18.9741 C   0  0  0  0  0  0  0  0  0  0  0  0
   15.1828  -12.3410   18.2694 H   0  0  0  0  0  0  0  0  0  0  0  0
   15.0875  -14.1114   18.4273 H   0  0  0  0  0  0  0  0  0  0  0  0
   17.0941  -14.1765   19.9158 C   0  0  0  0  0  0  0  0  0  0  0  0
   18.3561  -14.0514   20.7435 C   0  0  1  0  0  0  0  0  0  0  0  0
   18.3167  -13.0451   21.1604 H   0  0  0  0  0  0  0  0  0  0  0  0
   17.4128  -15.3855   22.5933 C   0  0  0  0  0  0  0  0  0  0  0  0
   17.2062  -16.6680   23.3641 C   0  0  1  0  0  0  0  0  0  0  0  0
   17.9484  -17.3895   23.0222 H   0  0  0  0  0  0  0  0  0  0  0  0
   17.4588  -16.4883   24.8811 C   0  0  0  0  0  0  0  0  0  0  0  0
   17.1572  -17.3926   25.4097 H   0  0  0  0  0  0  0  0  0  0  0  0
   16.8785  -15.6420   25.2487 H   0  0  0  0  0  0  0  0  0  0  0  0
   18.9596  -16.2271   25.1231 C   0  0  0  0  0  0  0  0  0  0  0  0
   16.2280  -13.1464   19.9033 N   0  0  0  0  0  0  0  0  0  0  0  0
   16.3562  -12.3651   20.5305 H   0  0  0  0  0  0  0  0  0  0  0  0
   19.8913  -17.2665   25.1914 C   0  0  0  0  0  0  0  0  0  0  0  0
   19.5674  -18.2901   25.0742 H   0  0  0  0  0  0  0  0  0  0  0  0
   21.2485  -16.9806   25.4123 C   0  0  0  0  0  0  0  0  0  0  0  0
   21.9611  -17.7906   25.4621 H   0  0  0  0  0  0  0  0  0  0  0  0
   21.6883  -15.6722   25.5677 C   0  0  0  0  0  0  0  0  0  0  0  0
   22.7351  -15.4680   25.7378 H   0  0  0  0  0  0  0  0  0  0  0  0
   20.7632  -14.6143   25.5025 C   0  0  0  0  0  0  0  0  0  0  0  0
   21.0894  -13.5917   25.6220 H   0  0  0  0  0  0  0  0  0  0  0  0
   19.4123  -14.9091   25.2803 C   0  0  0  0  0  0  0  0  0  0  0  0
   18.6996  -14.0993   25.2285 H   0  0  0  0  0  0  0  0  0  0  0  0
   19.5380  -16.0683   21.5598 C   0  0  0  0  0  0  0  0  0  0  0  0
   19.2362  -16.9131   20.9406 H   0  0  0  0  0  0  0  0  0  0  0  0
   19.9372  -16.4350   22.5053 H   0  0  0  0  0  0  0  0  0  0  0  0
   18.4453  -15.1080   21.7558 N   0  0  0  0  0  0  0  0  0  0  0  0
   20.5291  -15.1399   20.8320 C   0  0  0  0  0  0  0  0  0  0  0  0
   21.2682  -15.7148   20.2741 H   0  0  0  0  0  0  0  0  0  0  0  0
   21.0374  -14.4800   21.5352 H   0  0  0  0  0  0  0  0  0  0  0  0
   19.6159  -14.3414   19.8830 C   0  0  0  0  0  0  0  0  0  0  0  0
   20.0955  -13.4137   19.5708 H   0  0  0  0  0  0  0  0  0  0  0  0
   19.3586  -14.9312   19.0032 H   0  0  0  0  0  0  0  0  0  0  0  0
   13.1457  -11.8132   19.9241 C   0  0  0  0  0  0  0  0  0  0  0  0
   13.5346  -10.9380   19.4250 H   0  0  0  0  0  0  0  0  0  0  0  0
   11.9809  -11.7049   20.6781 C   0  0  0  0  0  0  0  0  0  0  0  0
   11.4775  -12.8361   21.3249 C   0  0  0  0  0  0  0  0  0  0  0  0
   10.5750  -12.7650   21.9139 H   0  0  0  0  0  0  0  0  0  0  0  0
   12.1427  -14.0607   21.2093 C   0  0  0  0  0  0  0  0  0  0  0  0
   11.7534  -14.9353   21.7092 H   0  0  0  0  0  0  0  0  0  0  0  0
   15.8501  -17.2268   23.0813 N   0  0  0  0  0  0  0  0  0  0  0  0
   15.1453  -16.5731   23.3908 H   0  0  0  0  0  0  0  0  0  0  0  0
   15.7371  -18.1016   23.5732 H   0  0  0  0  0  0  0  0  0  0  0  0
   15.7510  -17.3837   22.0885 H   0  0  0  0  0  0  0  0  0  0  0  0
   16.9122  -15.2178   19.2952 O   0  0  0  0  0  0  0  0  0  0  0  0
   16.5261  -14.5304   22.7862 O   0  0  0  0  0  0  0  0  0  0  0  0
   11.3318  -10.5316   20.7965 F   0  0  0  0  0  0  0  0  0  0  0  0
  1  2  1  0
  1  3  2  0
  1 44  1  0
  3  4  1  0
  3 39  1  0
  4  5  1  0
  4  6  1  0
  4 17  1  0
  7  8  1  0
  7 17  1  0
  7 50  2  0
  8  9  1  1
  8 32  1  0
  8 36  1  0
 10 11  1  0
 10 32  1  0
 10 51  2  0
 11 12  1  6
 11 13  1  0
 11 46  1  0
 13 14  1  0
 13 15  1  0
 13 16  1  0
 16 19  2  0
 16 27  1  0
 17 18  1  0
 19 20  1  0
 19 21  1  0
 21 22  1  0
 21 23  2  0
 23 24  1  0
 23 25  1  0
 25 26  1  0
 25 27  2  0
 27 28  1  0
 29 30  1  0
 29 31  1  0
 29 32  1  0
 29 33  1  0
 33 34  1  0
 33 35  1  0
 33 36  1  0
 36 37  1  0
 36 38  1  0
 39 40  1  0
 39 41  2  0
 41 42  1  0
 41 52  1  0
 42 43  1  0
 42 44  2  0
 44 45  1  0
 46 47  1  0
 46 48  1  0
 46 49  1  0
M  CHG  1  46   1
M  END
> <intraLJ>
23.036    

> <intraEL>
4.287     

> <intraDihe>
16.472    

> <interLJ>
0.000     

> <interEJ>
0.000     

> <gridLJ>
-7.135    

> <gridEL>
0.000     

> <totalE>
36.660    

> <LGFE>
-7.135  

> <LE>
-0.264  

> <SMILES>
[NH3+]C(Cc1ccccc1)C(=O)N1CCCC1C(=O)NCc1cccc(F)c1

> <atom.dprop.GFE>
-0.016 0 -0.048 -0.1 0 0 0 -0.43 0 0 -0.048 0 -0.15 0 0 -0.16 -0.14 0 -0.15 0 -0.18 0 -0.24 0 -0.26 0 -0.17 0 -0.34 0 0 -0.15 -0.4 0 0 -0.5 0 0 -0.081 0 -0.21 -0.14 0 -0.031 0 -2.4 0 0 0 0.03 0.46 -1.3

> <atom.prop.CLASS>
BENC NCLA BENC PRPC NCLA NCLA NCLA PRPC NCLA NCLA PRPC NCLA PRPC NCLA NCLA BENC GEND NCLA BENC NCLA BENC NCLA BENC NCLA BENC NCLA BENC NCLA PRPC NCLA NCLA GEHC PRPC NCLA NCLA PRPC NCLA NCLA BENC NCLA BENC BENC NCLA BENC NCLA MAMN NCLA NCLA NCLA GENA GENA GENA

$$$$
thrombin_baum_02_1b_2zc9
     RDKit          3D

 52 54  0  0  0  0  0  0  0  0999 V2000
   11.7216   -9.7661   23.0129 Cl  0  0  0  0  0  0  0  0  0  0  0  0
   17.9130  -16.1390   24.2727 C   0  0  0  0  0  0  0  0  0  0  0  0
   17.7109  -17.1191   24.7047 H   0  0  0  0  0  0  0  0  0  0  0  0
   17.4568  -15.3675   24.8930 H   0  0  0  0  0  0  0  0  0  0  0  0
   15.8511  -16.4979   22.8972 N   0  0  0  0  0  0  0  0  0  0  0  0
   15.7824  -17.4353   23.2666 H   0  0  0  0  0  0  0  0  0  0  0  0
   15.4730  -16.4765   21.9609 H   0  0  0  0  0  0  0  0  0  0  0  0
   15.3286  -15.8649   23.4858 H   0  0  0  0  0  0  0  0  0  0  0  0
   16.4969  -13.8745   22.7139 O   0  0  0  0  0  0  0  0  0  0  0  0
   17.2867  -16.0786   22.8649 C   0  0  1  0  0  0  0  0  0  0  0  0
   17.8537  -16.7603   22.2309 H   0  0  0  0  0  0  0  0  0  0  0  0
   18.1175  -14.3418   21.2395 N   0  0  0  0  0  0  0  0  0  0  0  0
   15.8546  -14.0812   19.7220 O   0  0  0  0  0  0  0  0  0  0  0  0
   17.3581  -14.6619   22.3035 C   0  0  0  0  0  0  0  0  0  0  0  0
   15.9459  -11.8185   19.7042 N   0  0  0  0  0  0  0  0  0  0  0  0
   16.4325  -10.9774   19.9794 H   0  0  0  0  0  0  0  0  0  0  0  0
   19.2253  -15.1690   20.7257 C   0  0  0  0  0  0  0  0  0  0  0  0
   18.8773  -15.9296   20.0267 H   0  0  0  0  0  0  0  0  0  0  0  0
   19.7873  -15.6444   21.5297 H   0  0  0  0  0  0  0  0  0  0  0  0
   20.0443  -14.0658   20.0206 C   0  0  0  0  0  0  0  0  0  0  0  0
   20.6856  -14.4862   19.2459 H   0  0  0  0  0  0  0  0  0  0  0  0
   20.6528  -13.5104   20.7342 H   0  0  0  0  0  0  0  0  0  0  0  0
   18.9379  -13.1640   19.4049 C   0  0  0  0  0  0  0  0  0  0  0  0
   18.5246  -13.6134   18.5020 H   0  0  0  0  0  0  0  0  0  0  0  0
   19.3261  -12.1725   19.1723 H   0  0  0  0  0  0  0  0  0  0  0  0
   17.8713  -13.0944   20.5305 C   0  0  1  0  0  0  0  0  0  0  0  0
   17.9389  -12.2089   21.1625 H   0  0  0  0  0  0  0  0  0  0  0  0
   16.4740  -13.0480   19.9495 C   0  0  0  0  0  0  0  0  0  0  0  0
   14.6358  -11.7543   19.0214 C   0  0  0  0  0  0  0  0  0  0  0  0
   14.5643  -12.5645   18.2958 H   0  0  0  0  0  0  0  0  0  0  0  0
   14.5403  -10.7975   18.5081 H   0  0  0  0  0  0  0  0  0  0  0  0
   13.5058  -11.8946   20.0616 C   0  0  0  0  0  0  0  0  0  0  0  0
   13.1837  -10.8550   20.9527 C   0  0  0  0  0  0  0  0  0  0  0  0
   13.7315   -9.9247   20.9229 H   0  0  0  0  0  0  0  0  0  0  0  0
   12.1494  -11.0333   21.8776 C   0  0  0  0  0  0  0  0  0  0  0  0
   11.4365  -12.2351   21.9112 C   0  0  0  0  0  0  0  0  0  0  0  0
   10.6259  -12.3657   22.6129 H   0  0  0  0  0  0  0  0  0  0  0  0
   11.7768  -13.2648   21.0345 C   0  0  0  0  0  0  0  0  0  0  0  0
   11.2522  -14.2077   21.0795 H   0  0  0  0  0  0  0  0  0  0  0  0
   12.7897  -13.0780   20.1038 C   0  0  0  0  0  0  0  0  0  0  0  0
   13.0220  -13.8666   19.4034 H   0  0  0  0  0  0  0  0  0  0  0  0
   19.4338  -15.9153   24.2436 C   0  0  0  0  0  0  0  0  0  0  0  0
   20.0118  -14.6594   24.4864 C   0  0  0  0  0  0  0  0  0  0  0  0
   19.3874  -13.8078   24.7126 H   0  0  0  0  0  0  0  0  0  0  0  0
   21.4068  -14.5189   24.4330 C   0  0  0  0  0  0  0  0  0  0  0  0
   21.8498  -13.5447   24.5781 H   0  0  0  0  0  0  0  0  0  0  0  0
   22.2253  -15.6143   24.1964 C   0  0  0  0  0  0  0  0  0  0  0  0
   23.2985  -15.5083   24.2559 H   0  0  0  0  0  0  0  0  0  0  0  0
   21.6580  -16.8659   23.8782 C   0  0  0  0  0  0  0  0  0  0  0  0
   22.2770  -17.6920   23.5608 H   0  0  0  0  0  0  0  0  0  0  0  0
   20.2738  -17.0057   23.9856 C   0  0  0  0  0  0  0  0  0  0  0  0
   19.8363  -17.9859   23.8660 H   0  0  0  0  0  0  0  0  0  0  0  0
  1 35  1  0
  2  3  1  0
  2  4  1  0
  2 10  1  0
  2 42  1  0
  5  6  1  0
  5  7  1  0
  5  8  1  0
  5 10  1  0
  9 14  2  0
 10 11  1  6
 10 14  1  0
 12 14  1  0
 12 17  1  0
 12 26  1  0
 13 28  2  0
 15 16  1  0
 15 28  1  0
 15 29  1  0
 17 18  1  0
 17 19  1  0
 17 20  1  0
 20 21  1  0
 20 22  1  0
 20 23  1  0
 23 24  1  0
 23 25  1  0
 23 26  1  0
 26 27  1  1
 26 28  1  0
 29 30  1  0
 29 31  1  0
 29 32  1  0
 32 33  2  0
 32 40  1  0
 33 34  1  0
 33 35  1  0
 35 36  2  0
 36 37  1  0
 36 38  1  0
 38 39  1  0
 38 40  2  0
 40 41  1  0
 42 43  2  0
 42 51  1  0
 43 44  1  0
 43 45  1  0
 45 46  1  0
 45 47  2  0
 47 48  1  0
 47 49  1  0
 49 50  1  0
 49 51  2  0
 51 52  1  0
M  CHG  1   5   1
M  END
> <intraLJ>
23.593    

> <intraEL>
3.834     

> <intraDihe>
16.390    

> <interLJ>
0.000     

> <interEJ>
0.000     

> <gridLJ>
-7.430    

> <gridEL>
0.000     

> <totalE>
36.386    

> <LGFE>
-7.430  

> <LE>
-0.275  

> <SMILES>
[NH3+]C(Cc1ccccc1)C(=O)N1CCCC1C(=O)NCc1cccc(Cl)c1

> <atom.dprop.GFE>
-1.2 -0.27 0 0 -2.4 0 0 0 0.83 -0.12 0 -0.15 -0.14 0 -0.5 0 -0.44 0 0 -0.48 0 0 -0.49 0 0 -0.39 0 0 -0.001 0 0 -0.081 0.025 0 -0.063 -0.063 0 -0.14 0 -0.15 0 -0.17 -0.24 0 -0.26 0 -0.22 0 -0.19 0 -0.18 0

> <atom.prop.CLASS>
GENA PRPC NCLA NCLA MAMN NCLA NCLA NCLA GENA PRPC NCLA GEHC GENA NCLA GEND NCLA PRPC NCLA NCLA PRPC NCLA NCLA PRPC NCLA NCLA PRPC NCLA NCLA PRPC NCLA NCLA BENC BENC NCLA BENC BENC NCLA BENC NCLA BENC NCLA BENC BENC NCLA BENC NCLA BENC NCLA BENC NCLA BENC NCLA

$$$$
thrombin_baum_03_1c
     RDKit          3D

 52 54  0  0  0  0  0  0  0  0999 V2000
   13.2049  -13.0977   19.9406 C   0  0  0  0  0  0  0  0  0  0  0  0
   13.5822  -13.8629   19.2784 H   0  0  0  0  0  0  0  0  0  0  0  0
   13.8298  -11.8432   19.9796 C   0  0  0  0  0  0  0  0  0  0  0  0
   15.0365  -11.5865   19.0779 C   0  0  0  0  0  0  0  0  0  0  0  0
   14.9951  -10.5722   18.6808 H   0  0  0  0  0  0  0  0  0  0  0  0
   15.0432  -12.2995   18.2535 H   0  0  0  0  0  0  0  0  0  0  0  0
   16.9206  -12.9128   19.8317 C   0  0  0  0  0  0  0  0  0  0  0  0
   18.2610  -13.0010   20.5309 C   0  0  1  0  0  0  0  0  0  0  0  0
   18.3152  -12.1006   21.1429 H   0  0  0  0  0  0  0  0  0  0  0  0
   17.4301  -14.6544   22.1640 C   0  0  0  0  0  0  0  0  0  0  0  0
   17.2475  -16.0545   22.7006 C   0  0  1  0  0  0  0  0  0  0  0  0
   17.9347  -16.7116   22.1674 H   0  0  0  0  0  0  0  0  0  0  0  0
   17.6319  -16.1647   24.1964 C   0  0  0  0  0  0  0  0  0  0  0  0
   17.3927  -17.1639   24.5607 H   0  0  0  0  0  0  0  0  0  0  0  0
   17.0738  -15.4253   24.7707 H   0  0  0  0  0  0  0  0  0  0  0  0
   19.1441  -15.9067   24.3570 C   0  0  0  0  0  0  0  0  0  0  0  0
   16.2380  -11.7545   19.8924 N   0  0  0  0  0  0  0  0  0  0  0  0
   16.5534  -11.0082   20.4955 H   0  0  0  0  0  0  0  0  0  0  0  0
   19.6471  -14.6586   24.7341 C   0  0  0  0  0  0  0  0  0  0  0  0
   18.9703  -13.8382   24.9217 H   0  0  0  0  0  0  0  0  0  0  0  0
   21.0323  -14.4706   24.8691 C   0  0  0  0  0  0  0  0  0  0  0  0
   21.4114  -13.5027   25.1623 H   0  0  0  0  0  0  0  0  0  0  0  0
   21.9224  -15.5103   24.6313 C   0  0  0  0  0  0  0  0  0  0  0  0
   22.9851  -15.3503   24.7384 H   0  0  0  0  0  0  0  0  0  0  0  0
   21.4324  -16.7727   24.2501 C   0  0  0  0  0  0  0  0  0  0  0  0
   22.1115  -17.5909   24.0612 H   0  0  0  0  0  0  0  0  0  0  0  0
   20.0495  -16.9510   24.1197 C   0  0  0  0  0  0  0  0  0  0  0  0
   19.6700  -17.9192   23.8283 H   0  0  0  0  0  0  0  0  0  0  0  0
   19.4071  -15.1795   20.7979 C   0  0  0  0  0  0  0  0  0  0  0  0
   19.0030  -15.8693   20.0570 H   0  0  0  0  0  0  0  0  0  0  0  0
   19.8752  -15.7449   21.6036 H   0  0  0  0  0  0  0  0  0  0  0  0
   18.3908  -14.2448   21.2958 N   0  0  0  0  0  0  0  0  0  0  0  0
   20.3717  -14.1543   20.1714 C   0  0  0  0  0  0  0  0  0  0  0  0
   21.0224  -14.6264   19.4353 H   0  0  0  0  0  0  0  0  0  0  0  0
   20.9794  -13.6693   20.9354 H   0  0  0  0  0  0  0  0  0  0  0  0
   19.4153  -13.1492   19.5026 C   0  0  0  0  0  0  0  0  0  0  0  0
   19.9113  -12.1932   19.3344 H   0  0  0  0  0  0  0  0  0  0  0  0
   19.0439  -13.5376   18.5543 H   0  0  0  0  0  0  0  0  0  0  0  0
   13.3220  -10.8719   20.8417 C   0  0  0  0  0  0  0  0  0  0  0  0
   13.7944   -9.9015   20.8804 H   0  0  0  0  0  0  0  0  0  0  0  0
   12.2201  -11.1248   21.6534 C   0  0  0  0  0  0  0  0  0  0  0  0
   11.6090  -12.3800   21.6048 C   0  0  0  0  0  0  0  0  0  0  0  0
   10.7539  -12.5892   22.2305 H   0  0  0  0  0  0  0  0  0  0  0  0
   12.1049  -13.3655   20.7456 C   0  0  0  0  0  0  0  0  0  0  0  0
   11.6322  -14.3358   20.7079 H   0  0  0  0  0  0  0  0  0  0  0  0
   15.8551  -16.5289   22.4404 N   0  0  0  0  0  0  0  0  0  0  0  0
   15.2002  -15.9329   22.9261 H   0  0  0  0  0  0  0  0  0  0  0  0
   15.7555  -17.4781   22.7708 H   0  0  0  0  0  0  0  0  0  0  0  0
   15.6682  -16.4964   21.4484 H   0  0  0  0  0  0  0  0  0  0  0  0
   16.5105  -13.9070   19.2433 O   0  0  0  0  0  0  0  0  0  0  0  0
   16.5976  -13.8335   22.5973 O   0  0  0  0  0  0  0  0  0  0  0  0
   11.5032   -9.7379   22.8784 Br  0  0  0  0  0  0  0  0  0  0  0  0
  1  2  1  0
  1  3  2  0
  1 44  1  0
  3  4  1  0
  3 39  1  0
  4  5  1  0
  4  6  1  0
  4 17  1  0
  7  8  1  0
  7 17  1  0
  7 50  2  0
  8  9  1  1
  8 32  1  0
  8 36  1  0
 10 11  1  0
 10 32  1  0
 10 51  2  0
 11 12  1  6
 11 13  1  0
 11 46  1  0
 13 14  1  0
 13 15  1  0
 13 16  1  0
 16 19  2  0
 16 27  1  0
 17 18  1  0
 19 20  1  0
 19 21  1  0
 21 22  1  0
 21 23  2  0
 23 24  1  0
 23 25  1  0
 25 26  1  0
 25 27  2  0
 27 28  1  0
 29 30  1  0
 29 31  1  0
 29 32  1  0
 29 33  1  0
 33 34  1  0
 33 35  1  0
 33 36  1  0
 36 37  1  0
 36 38  1  0
 39 40  1  0
 39 41  2  0
 41 42  1  0
 41 52  1  0
 42 43  1  0
 42 44  2  0
 44 45  1  0
 46 47  1  0
 46 48  1  0
 46 49  1  0
M  CHG  1  46   1
M  END
> <intraLJ>
23.293    

> <intraEL>
4.368     

> <intraDihe>
16.635    

> <interLJ>
0.000     

> <interEJ>
0.000     

> <gridLJ>
-7.078    

> <gridEL>
0.000     

> <totalE>
37.217    

> <LGFE>
-7.078  

> <LE>
-0.262  

> <SMILES>
[NH3+]C(Cc1ccccc1)C(=O)N1CCCC1C(=O)NCc1cccc(Br)c1

> <atom.dprop.GFE>
-0.063 0 -0.081 -0.097 0 0 0 -0.39 0 0 -0.13 0 -0.11 0 0 -0.17 -0.4 0 -0.2 0 -0.28 0 -0.22 0 -0.19 0 -0.18 0 -0.44 0 0 -0.15 -0.48 0 0 -0.49 0 0 -0.061 0 -0.21 -0.19 0 -0.15 0 -2.2 0 0 0 0.11 0.83 -1.2

> <atom.prop.CLASS>
BENC NCLA BENC PRPC NCLA NCLA NCLA PRPC NCLA NCLA PRPC NCLA PRPC NCLA NCLA BENC GEND NCLA BENC NCLA BENC NCLA BENC NCLA BENC NCLA BENC NCLA PRPC NCLA NCLA GEHC PRPC NCLA NCLA PRPC NCLA NCLA BENC NCLA BENC BENC NCLA BENC NCLA MAMN NCLA NCLA NCLA GENA GENA GENA

$$$$
thrombin_baum_04_1d
     RDKit          3D

 52 54  0  0  0  0  0  0  0  0999 V2000
   13.0195  -13.8542   20.4898 C   0  0  0  0  0  0  0  0  0  0  0  0
   13.3708  -14.7315   19.9671 H   0  0  0  0  0  0  0  0  0  0  0  0
   13.4733  -12.5859   20.1009 C   0  0  0  0  0  0  0  0  0  0  0  0
   14.4592  -12.4743   18.9388 C   0  0  0  0  0  0  0  0  0  0  0  0
   14.1654  -11.6581   18.2787 H   0  0  0  0  0  0  0  0  0  0  0  0
   14.4783  -13.4077   18.3761 H   0  0  0  0  0  0  0  0  0  0  0  0
   16.5425  -13.2360   19.9169 C   0  0  0  0  0  0  0  0  0  0  0  0
   17.9751  -12.9586   20.3221 C   0  0  1  0  0  0  0  0  0  0  0  0
   17.9436  -11.9811   20.8034 H   0  0  0  0  0  0  0  0  0  0  0  0
   17.8382  -14.4685   22.2695 C   0  0  0  0  0  0  0  0  0  0  0  0
   17.9707  -15.8319   22.9060 C   0  0  1  0  0  0  0  0  0  0  0  0
   18.6635  -16.4189   22.3030 H   0  0  0  0  0  0  0  0  0  0  0  0
   18.5965  -15.7610   24.3205 C   0  0  0  0  0  0  0  0  0  0  0  0
   18.5598  -16.7468   24.7843 H   0  0  0  0  0  0  0  0  0  0  0  0
   18.0374  -15.0515   24.9304 H   0  0  0  0  0  0  0  0  0  0  0  0
   20.0640  -15.2993   24.2088 C   0  0  0  0  0  0  0  0  0  0  0  0
   15.7791  -12.2067   19.5057 N   0  0  0  0  0  0  0  0  0  0  0  0
   16.1155  -11.2579   19.5882 H   0  0  0  0  0  0  0  0  0  0  0  0
   20.4308  -13.9572   24.3401 C   0  0  0  0  0  0  0  0  0  0  0  0
   19.6760  -13.2070   24.5248 H   0  0  0  0  0  0  0  0  0  0  0  0
   21.7802  -13.5834   24.2322 C   0  0  0  0  0  0  0  0  0  0  0  0
   22.0540  -12.5439   24.3365 H   0  0  0  0  0  0  0  0  0  0  0  0
   22.7683  -14.5302   23.9931 C   0  0  0  0  0  0  0  0  0  0  0  0
   23.8018  -14.2274   23.9117 H   0  0  0  0  0  0  0  0  0  0  0  0
   22.4158  -15.8853   23.8575 C   0  0  0  0  0  0  0  0  0  0  0  0
   23.1723  -16.6332   23.6710 H   0  0  0  0  0  0  0  0  0  0  0  0
   21.0679  -16.2485   23.9684 C   0  0  0  0  0  0  0  0  0  0  0  0
   20.7940  -17.2882   23.8660 H   0  0  0  0  0  0  0  0  0  0  0  0
   19.5966  -14.8114   20.5840 C   0  0  0  0  0  0  0  0  0  0  0  0
   19.2231  -15.6712   20.0279 H   0  0  0  0  0  0  0  0  0  0  0  0
   20.3162  -15.1464   21.3308 H   0  0  0  0  0  0  0  0  0  0  0  0
   18.5105  -14.0221   21.1772 N   0  0  0  0  0  0  0  0  0  0  0  0
   20.1832  -13.7301   19.6563 C   0  0  0  0  0  0  0  0  0  0  0  0
   20.7744  -14.1773   18.8571 H   0  0  0  0  0  0  0  0  0  0  0  0
   20.8006  -13.0266   20.2148 H   0  0  0  0  0  0  0  0  0  0  0  0
   18.9249  -13.0407   19.0962 C   0  0  0  0  0  0  0  0  0  0  0  0
   19.1616  -12.0453   18.7203 H   0  0  0  0  0  0  0  0  0  0  0  0
   18.4791  -13.6340   18.2979 H   0  0  0  0  0  0  0  0  0  0  0  0
   13.0031  -11.4691   20.7908 C   0  0  0  0  0  0  0  0  0  0  0  0
   13.3449  -10.4866   20.5003 H   0  0  0  0  0  0  0  0  0  0  0  0
   12.1032  -11.5918   21.8454 C   0  0  0  0  0  0  0  0  0  0  0  0
   11.6612  -12.8621   22.2226 C   0  0  0  0  0  0  0  0  0  0  0  0
   10.9638  -12.9709   23.0400 H   0  0  0  0  0  0  0  0  0  0  0  0
   12.1222  -13.9929   21.5412 C   0  0  0  0  0  0  0  0  0  0  0  0
   11.7803  -14.9750   21.8327 H   0  0  0  0  0  0  0  0  0  0  0  0
   16.6502  -16.5303   22.9087 N   0  0  0  0  0  0  0  0  0  0  0  0
   15.9913  -16.0024   23.4630 H   0  0  0  0  0  0  0  0  0  0  0  0
   16.7585  -17.4536   23.3033 H   0  0  0  0  0  0  0  0  0  0  0  0
   16.3080  -16.6071   21.9616 H   0  0  0  0  0  0  0  0  0  0  0  0
   16.1365  -14.3905   19.9874 O   0  0  0  0  0  0  0  0  0  0  0  0
   17.0265  -13.7174   22.8456 O   0  0  0  0  0  0  0  0  0  0  0  0
   11.3717   -9.8377   22.9214 I   0  0  0  0  0  0  0  0  0  0  0  0
  1  2  1  0
  1  3  2  0
  1 44  1  0
  3  4  1  0
  3 39  1  0
  4  5  1  0
  4  6  1  0
  4 17  1  0
  7  8  1  0
  7 17  1  0
  7 50  2  0
  8  9  1  1
  8 32  1  0
  8 36  1  0
 10 11  1  0
 10 32  1  0
 10 51  2  0
 11 12  1  6
 11 13  1  0
 11 46  1  0
 13 14  1  0
 13 15  1  0
 13 16  1  0
 16 19  2  0
 16 27  1  0
 17 18  1  0
 19 20  1  0
 19 21  1  0
 21 22  1  0
 21 23  2  0
 23 24  1  0
 23 25  1  0
 25 26  1  0
 25 27  2  0
 27 28  1  0
 29 30  1  0
 29 31  1  0
 29 32  1  0
 29 33  1  0
 33 34  1  0
 33 35  1  0
 33 36  1  0
 36 37  1  0
 36 38  1  0
 39 40  1  0
 39 41  2  0
 41 42  1  0
 41 52  1  0
 42 43  1  0
 42 44  2  0
 44 45  1  0
 46 47  1  0
 46 48  1  0
 46 49  1  0
M  CHG  1  46   1
M  END
> <intraLJ>
23.761    

> <intraEL>
4.095     

> <intraDihe>
16.326    

> <interLJ>
0.000     

> <interEJ>
0.000     

> <gridLJ>
-7.418    

> <gridEL>
0.000     

> <totalE>
36.763    

> <LGFE>
-7.418  

> <LE>
-0.275  

> <SMILES>
[NH3+]C(Cc1ccccc1)C(=O)N1CCCC1C(=O)NCc1cccc(I)c1

> <atom.dprop.GFE>
-0.016 0 -0.063 -0.098 0 0 0 -0.39 0 0 -0.27 0 -0.27 0 0 -0.24 -0.39 0 -0.27 0 -0.22 0 -0.25 0 -0.22 0 -0.24 0 -0.44 0 0 -0.15 -0.43 0 0 -0.49 0 0 -0.081 0 -0.16 -0.0052 0 -0.031 0 -2 0 0 0 0.03 0.44 -1.2

> <atom.prop.CLASS>
BENC NCLA BENC PRPC NCLA NCLA NCLA PRPC NCLA NCLA PRPC NCLA PRPC NCLA NCLA BENC GEND NCLA BENC NCLA BENC NCLA BENC NCLA BENC NCLA BENC NCLA PRPC NCLA NCLA GEHC PRPC NCLA NCLA PRPC NCLA NCLA BENC NCLA BENC BENC NCLA BENC NCLA MAMN NCLA NCLA NCLA GENA GENA GENA

$$$$
thrombin_baum_05_2a
     RDKit          3D

 55 57  0  0  0  0  0  0  0  0999 V2000
   13.2490  -13.4441   20.3282 C   0  0  0  0  0  0  0  0  0  0  0  0
   13.6666  -14.3846   20.0713 H   0  0  0  0  0  0  0  0  0  0  0  0
   13.7460  -12.2792   19.7468 C   0  0  0  0  0  0  0  0  0  0  0  0
   14.8945  -12.3922   18.7453 C   0  0  0  0  0  0  0  0  0  0  0  0
   14.7847  -11.6374   17.9666 H   0  0  0  0  0  0  0  0  0  0  0  0
   14.8970  -13.3837   18.2924 H   0  0  0  0  0  0  0  0  0  0  0  0
   16.8855  -13.2353   19.8418 C   0  0  0  0  0  0  0  0  0  0  0  0
   18.2596  -12.9872   20.4279 C   0  0  1  0  0  0  0  0  0  0  0  0
   18.1876  -12.0077   20.9007 H   0  0  0  0  0  0  0  0  0  0  0  0
   17.8405  -14.4874   22.3422 C   0  0  0  0  0  0  0  0  0  0  0  0
   17.9069  -15.8252   23.0404 C   0  0  1  0  0  0  0  0  0  0  0  0
   18.6296  -16.4459   22.5107 H   0  0  0  0  0  0  0  0  0  0  0  0
   18.4355  -15.7049   24.4907 C   0  0  0  0  0  0  0  0  0  0  0  0
   18.2860  -16.6506   25.0120 H   0  0  0  0  0  0  0  0  0  0  0  0
   17.8947  -14.9141   25.0105 H   0  0  0  0  0  0  0  0  0  0  0  0
   19.9400  -15.3659   24.4611 C   0  0  0  0  0  0  0  0  0  0  0  0
   16.1401  -12.1754   19.4779 N   0  0  0  0  0  0  0  0  0  0  0  0
   16.4390  -11.2388   19.7091 H   0  0  0  0  0  0  0  0  0  0  0  0
   20.9210  -16.3559   24.3584 C   0  0  0  0  0  0  0  0  0  0  0  0
   20.6344  -17.3954   24.2979 H   0  0  0  0  0  0  0  0  0  0  0  0
   22.2793  -15.9997   24.3338 C   0  0  0  0  0  0  0  0  0  0  0  0
   23.0300  -16.7718   24.2528 H   0  0  0  0  0  0  0  0  0  0  0  0
   22.6719  -14.6695   24.4121 C   0  0  0  0  0  0  0  0  0  0  0  0
   23.7204  -14.4110   24.3928 H   0  0  0  0  0  0  0  0  0  0  0  0
   21.6970  -13.6607   24.5167 C   0  0  0  0  0  0  0  0  0  0  0  0
   21.9863  -12.6221   24.5790 H   0  0  0  0  0  0  0  0  0  0  0  0
   20.3451  -14.0256   24.5389 C   0  0  0  0  0  0  0  0  0  0  0  0
   19.5940  -13.2536   24.6179 H   0  0  0  0  0  0  0  0  0  0  0  0
   19.7935  -14.8733   20.8974 C   0  0  0  0  0  0  0  0  0  0  0  0
   19.4762  -15.7269   20.2983 H   0  0  0  0  0  0  0  0  0  0  0  0
   20.4036  -15.2212   21.7309 H   0  0  0  0  0  0  0  0  0  0  0  0
   18.6574  -14.0591   21.3455 N   0  0  0  0  0  0  0  0  0  0  0  0
   20.5179  -13.8080   20.0525 C   0  0  0  0  0  0  0  0  0  0  0  0
   21.1973  -14.2703   19.3363 H   0  0  0  0  0  0  0  0  0  0  0  0
   21.0733  -13.1159   20.6855 H   0  0  0  0  0  0  0  0  0  0  0  0
   19.3574  -13.0937   19.3347 C   0  0  0  0  0  0  0  0  0  0  0  0
   19.6620  -12.1048   18.9918 H   0  0  0  0  0  0  0  0  0  0  0  0
   19.0054  -13.6799   18.4859 H   0  0  0  0  0  0  0  0  0  0  0  0
   13.1892  -11.0531   20.1089 C   0  0  0  0  0  0  0  0  0  0  0  0
   13.5657  -10.1661   19.6650 H   0  0  0  0  0  0  0  0  0  0  0  0
   12.1490  -10.9745   21.0429 C   0  0  0  0  0  0  0  0  0  0  0  0
   11.6572  -12.1595   21.6010 C   0  0  0  0  0  0  0  0  0  0  0  0
   10.8592  -12.1345   22.3007 H   0  0  0  0  0  0  0  0  0  0  0  0
   12.2067  -13.3857   21.2457 C   0  0  0  0  0  0  0  0  0  0  0  0
   11.8296  -14.2788   21.6751 H   0  0  0  0  0  0  0  0  0  0  0  0
   16.5781  -16.5050   22.9799 N   0  0  0  0  0  0  0  0  0  0  0  0
   15.8915  -15.9459   23.4658 H   0  0  0  0  0  0  0  0  0  0  0  0
   16.6440  -17.4128   23.4177 H   0  0  0  0  0  0  0  0  0  0  0  0
   16.3003  -16.6159   22.0152 H   0  0  0  0  0  0  0  0  0  0  0  0
   16.5073  -14.3960   19.7295 O   0  0  0  0  0  0  0  0  0  0  0  0
   16.9364  -13.7400   22.7650 O   0  0  0  0  0  0  0  0  0  0  0  0
   11.5500   -9.6136   21.4208 C   0  0  0  0  0  0  0  0  0  0  0  0
   10.3153   -9.7757   21.9378 F   0  0  0  0  0  0  0  0  0  0  0  0
   11.4623   -8.8117   20.3414 F   0  0  0  0  0  0  0  0  0  0  0  0
   12.3319   -9.0249   22.3403 F   0  0  0  0  0  0  0  0  0  0  0  0
  1  2  1  0
  1  3  2  0
  1 44  1  0
  3  4  1  0
  3 39  1  0
  4  5  1  0
  4  6  1  0
  4 17  1  0
  7  8  1  0
  7 17  1  0
  7 50  2  0
  8  9  1  1
  8 32  1  0
  8 36  1  0
 10 11  1  0
 10 32  1  0
 10 51  2  0
 11 12  1  6
 11 13  1  0
 11 46  1  0
 13 14  1  0
 13 15  1  0
 13 16  1  0
 16 19  2  0
 16 27  1  0
 17 18  1  0
 19 20  1  0
 19 21  1  0
 21 22  1  0
 21 23  2  0
 23 24  1  0
 23 25  1  0
 25 26  1  0
 25 27  2  0
 27 28  1  0
 29 30  1  0
 29 31  1  0
 29 32  1  0
 29 33  1  0
 33 34  1  0
 33 35  1  0
 33 36  1  0
 36 37  1  0
 36 38  1  0
 39 40  1  0
 39 41  2  0
 41 42  1  0
 41 52  1  0
 42 43  1  0
 42 44  2  0
 44 45  1  0
 46 47  1  0
 46 48  1  0
 46 49  1  0
 52 53  1  0
 52 54  1  0
 52 55  1  0
M  CHG  1  46   1
M  END
> <intraLJ>
27.040    

> <intraEL>
5.624     

> <intraDihe>
18.010    

> <interLJ>
0.000     

> <interEJ>
0.000     

> <gridLJ>
-7.052    

> <gridEL>
0.000     

> <totalE>
43.622    

> <LGFE>
-7.052  

> <LE>
-0.235  

> <SMILES>
[NH3+]C(Cc1ccccc1)C(=O)N1CCCC1C(=O)NCc1cccc(C(F)(F)F)c1

> <atom.dprop.GFE>
-0.063 0 -0.045 0.013 0 0 0 -0.39 0 0 -0.27 0 -0.27 0 0 -0.24 -0.5 0 -0.24 0 -0.22 0 -0.25 0 -0.22 0 -0.27 0 -0.46 0 0 -0.15 -0.48 0 0 -0.49 0 0 -0.061 0 -0.21 -0.19 0 -0.11 0 -2 0 0 0 0.11 0.44 -0.47 0 0 0

> <atom.prop.CLASS>
BENC NCLA BENC PRPC NCLA NCLA NCLA PRPC NCLA NCLA PRPC NCLA PRPC NCLA NCLA BENC GEND NCLA BENC NCLA BENC NCLA BENC NCLA BENC NCLA BENC NCLA PRPC NCLA NCLA GEHC PRPC NCLA NCLA PRPC NCLA NCLA BENC NCLA BENC BENC NCLA BENC NCLA MAMN NCLA NCLA NCLA GENA GENA PRPC NCLA NCLA NCLA

$$$$
thrombin_baum_06_2b
     RDKit          3D

 56 58  0  0  0  0  0  0  0  0999 V2000
   13.6166  -13.7613   18.8494 C   0  0  0  0  0  0  0  0  0  0  0  0
   14.2674  -14.4482   18.3714 H   0  0  0  0  0  0  0  0  0  0  0  0
   13.9366  -12.4009   18.8751 C   0  0  0  0  0  0  0  0  0  0  0  0
   15.2295  -11.9419   18.2021 C   0  0  0  0  0  0  0  0  0  0  0  0
   15.1171  -10.9207   17.8380 H   0  0  0  0  0  0  0  0  0  0  0  0
   15.4686  -12.6010   17.3675 H   0  0  0  0  0  0  0  0  0  0  0  0
   17.1305  -13.0526   19.2168 C   0  0  0  0  0  0  0  0  0  0  0  0
   18.3361  -13.0065   20.1320 C   0  0  1  0  0  0  0  0  0  0  0  0
   18.2505  -12.0551   20.6570 H   0  0  0  0  0  0  0  0  0  0  0  0
   17.3079  -14.5560   21.7546 C   0  0  0  0  0  0  0  0  0  0  0  0
   17.1642  -15.8499   22.5207 C   0  0  1  0  0  0  0  0  0  0  0  0
   17.9469  -16.5295   22.1833 H   0  0  0  0  0  0  0  0  0  0  0  0
   17.3943  -15.6611   24.0402 C   0  0  0  0  0  0  0  0  0  0  0  0
   17.0877  -16.5634   24.5693 H   0  0  0  0  0  0  0  0  0  0  0  0
   16.8062  -14.8145   24.3946 H   0  0  0  0  0  0  0  0  0  0  0  0
   18.8907  -15.3940   24.3024 C   0  0  0  0  0  0  0  0  0  0  0  0
   16.2916  -12.0002   19.2039 N   0  0  0  0  0  0  0  0  0  0  0  0
   16.3954  -11.2575   19.8805 H   0  0  0  0  0  0  0  0  0  0  0  0
   19.8142  -16.4325   24.4497 C   0  0  0  0  0  0  0  0  0  0  0  0
   19.4869  -17.4595   24.3816 H   0  0  0  0  0  0  0  0  0  0  0  0
   21.1676  -16.1413   24.6861 C   0  0  0  0  0  0  0  0  0  0  0  0
   21.8740  -16.9506   24.7972 H   0  0  0  0  0  0  0  0  0  0  0  0
   21.6116  -14.8283   24.7795 C   0  0  0  0  0  0  0  0  0  0  0  0
   22.6554  -14.6201   24.9625 H   0  0  0  0  0  0  0  0  0  0  0  0
   20.6946  -13.7713   24.6344 C   0  0  0  0  0  0  0  0  0  0  0  0
   21.0242  -12.7453   24.7049 H   0  0  0  0  0  0  0  0  0  0  0  0
   19.3475  -14.0716   24.3972 C   0  0  0  0  0  0  0  0  0  0  0  0
   18.6411  -13.2625   24.2842 H   0  0  0  0  0  0  0  0  0  0  0  0
   19.5064  -15.0876   20.7878 C   0  0  0  0  0  0  0  0  0  0  0  0
   19.2608  -15.8600   20.0588 H   0  0  0  0  0  0  0  0  0  0  0  0
   19.8538  -15.5549   21.7091 H   0  0  0  0  0  0  0  0  0  0  0  0
   18.3843  -14.1708   21.0215 N   0  0  0  0  0  0  0  0  0  0  0  0
   20.5214  -14.0689   20.2347 C   0  0  0  0  0  0  0  0  0  0  0  0
   21.3051  -14.5663   19.6634 H   0  0  0  0  0  0  0  0  0  0  0  0
   20.9716  -13.4872   21.0391 H   0  0  0  0  0  0  0  0  0  0  0  0
   19.6523  -13.1792   19.3261 C   0  0  0  0  0  0  0  0  0  0  0  0
   20.1313  -12.2155   19.1524 H   0  0  0  0  0  0  0  0  0  0  0  0
   19.4620  -13.6677   18.3705 H   0  0  0  0  0  0  0  0  0  0  0  0
   13.0748  -11.5140   19.5195 C   0  0  0  0  0  0  0  0  0  0  0  0
   13.3076  -10.4837   19.5494 H   0  0  0  0  0  0  0  0  0  0  0  0
   11.9062  -11.9893   20.1182 C   0  0  0  0  0  0  0  0  0  0  0  0
   11.0197  -11.1525   20.7605 O   0  0  0  0  0  0  0  0  0  0  0  0
   11.1622   -9.7198   20.8749 C   0  0  0  0  0  0  0  0  0  0  0  0
   10.2961   -9.3420   21.4182 H   0  0  0  0  0  0  0  0  0  0  0  0
   11.1959   -9.2969   19.8705 H   0  0  0  0  0  0  0  0  0  0  0  0
   12.0792   -9.5091   21.4255 H   0  0  0  0  0  0  0  0  0  0  0  0
   11.5888  -13.3422   20.0848 C   0  0  0  0  0  0  0  0  0  0  0  0
   10.6972  -13.6845   20.5422 H   0  0  0  0  0  0  0  0  0  0  0  0
   12.4484  -14.2293   19.4480 C   0  0  0  0  0  0  0  0  0  0  0  0
   12.2138  -15.2624   19.4167 H   0  0  0  0  0  0  0  0  0  0  0  0
   15.8425  -16.4800   22.2252 N   0  0  0  0  0  0  0  0  0  0  0  0
   15.1010  -15.8660   22.5303 H   0  0  0  0  0  0  0  0  0  0  0  0
   15.7727  -17.3610   22.7141 H   0  0  0  0  0  0  0  0  0  0  0  0
   15.7601  -16.6393   21.2312 H   0  0  0  0  0  0  0  0  0  0  0  0
   16.9667  -14.0539   18.5287 O   0  0  0  0  0  0  0  0  0  0  0  0
   16.3185  -13.8024   21.8434 O   0  0  0  0  0  0  0  0  0  0  0  0
  1  2  1  0
  1  3  2  0
  1 49  1  0
  3  4  1  0
  3 39  1  0
  4  5  1  0
  4  6  1  0
  4 17  1  0
  7  8  1  0
  7 17  1  0
  7 55  2  0
  8  9  1  1
  8 32  1  0
  8 36  1  0
 10 11  1  0
 10 32  1  0
 10 56  2  0
 11 12  1  6
 11 13  1  0
 11 51  1  0
 13 14  1  0
 13 15  1  0
 13 16  1  0
 16 19  2  0
 16 27  1  0
 17 18  1  0
 19 20  1  0
 19 21  1  0
 21 22  1  0
 21 23  2  0
 23 24  1  0
 23 25  1  0
 25 26  1  0
 25 27  2  0
 27 28  1  0
 29 30  1  0
 29 31  1  0
 29 32  1  0
 29 33  1  0
 33 34  1  0
 33 35  1  0
 33 36  1  0
 36 37  1  0
 36 38  1  0
 39 40  1  0
 39 41  2  0
 41 42  1  0
 41 47  1  0
 42 43  1  0
 43 44  1  0
 43 45  1  0
 43 46  1  0
 47 48  1  0
 47 49  2  0
 49 50  1  0
 51 52  1  0
 51 53  1  0
 51 54  1  0
M  CHG  1  51   1
M  END
> <intraLJ>
25.600    

> <intraEL>
4.358     

> <intraDihe>
16.434    

> <interLJ>
0.000     

> <interEJ>
0.000     

> <gridLJ>
-7.781    

> <gridEL>
0.000     

> <totalE>
38.611    

> <LGFE>
-7.781  

> <LE>
-0.278  

> <SMILES>
COc1cccc(CNC(=O)C2CCCN2C(=O)C([NH3+])Cc2ccccc2)c1

> <atom.dprop.GFE>
0.024 0 -0.0005 0.013 0 0 0 -0.39 0 0 -0.13 0 -0.11 0 0 -0.2 -0.5 0 -0.17 0 -0.24 0 -0.26 0 -0.27 0 -0.16 0 -0.44 0 0 -0.15 -0.48 0 0 -0.49 0 0 -0.045 0 -0.21 -1.3 -0.47 0 0 0 -0.093 0 0.016 0 -2.2 0 0 0 0.28 0.16

> <atom.prop.CLASS>
BENC NCLA BENC PRPC NCLA NCLA NCLA PRPC NCLA NCLA PRPC NCLA PRPC NCLA NCLA BENC GEND NCLA BENC NCLA BENC NCLA BENC NCLA BENC NCLA BENC NCLA PRPC NCLA NCLA GEHC PRPC NCLA NCLA PRPC NCLA NCLA BENC NCLA BENC GENA PRPC NCLA NCLA NCLA BENC NCLA BENC NCLA MAMN NCLA NCLA NCLA GENA GENA

$$$$
thrombin_baum_07_2c
     RDKit          3D

 53 55  0  0  0  0  0  0  0  0999 V2000
   12.5481  -12.5431   20.5461 C   0  0  0  0  0  0  0  0  0  0  0  0
   12.7165  -13.5760   20.7160 H   0  0  0  0  0  0  0  0  0  0  0  0
   13.3688  -11.8407   19.6580 C   0  0  0  0  0  0  0  0  0  0  0  0
   14.4943  -12.5939   18.9503 C   0  0  0  0  0  0  0  0  0  0  0  0
   14.5632  -12.2699   17.9119 H   0  0  0  0  0  0  0  0  0  0  0  0
   14.3029  -13.6665   18.9843 H   0  0  0  0  0  0  0  0  0  0  0  0
   16.6336  -13.2681   19.8701 C   0  0  0  0  0  0  0  0  0  0  0  0
   17.9932  -12.8978   20.4248 C   0  0  1  0  0  0  0  0  0  0  0  0
   17.8362  -11.9474   20.9348 H   0  0  0  0  0  0  0  0  0  0  0  0
   17.7934  -14.4963   22.2946 C   0  0  0  0  0  0  0  0  0  0  0  0
   17.9638  -15.8778   22.8810 C   0  0  1  0  0  0  0  0  0  0  0  0
   18.6672  -16.4254   22.2536 H   0  0  0  0  0  0  0  0  0  0  0  0
   18.5966  -15.8420   24.2937 C   0  0  0  0  0  0  0  0  0  0  0  0
   18.5790  -16.8427   24.7257 H   0  0  0  0  0  0  0  0  0  0  0  0
   18.0292  -15.1620   24.9292 H   0  0  0  0  0  0  0  0  0  0  0  0
   20.0554  -15.3521   24.1893 C   0  0  0  0  0  0  0  0  0  0  0  0
   15.7385  -12.2868   19.6523 N   0  0  0  0  0  0  0  0  0  0  0  0
   15.9251  -11.3468   19.9712 H   0  0  0  0  0  0  0  0  0  0  0  0
   20.4047  -14.0147   24.3946 C   0  0  0  0  0  0  0  0  0  0  0  0
   19.6421  -13.2883   24.6336 H   0  0  0  0  0  0  0  0  0  0  0  0
   21.7469  -13.6147   24.2903 C   0  0  0  0  0  0  0  0  0  0  0  0
   22.0072  -12.5791   24.4520 H   0  0  0  0  0  0  0  0  0  0  0  0
   22.7449  -14.5306   23.9821 C   0  0  0  0  0  0  0  0  0  0  0  0
   23.7727  -14.2078   23.9045 H   0  0  0  0  0  0  0  0  0  0  0  0
   22.4100  -15.8806   23.7716 C   0  0  0  0  0  0  0  0  0  0  0  0
   23.1743  -16.6046   23.5308 H   0  0  0  0  0  0  0  0  0  0  0  0
   21.0692  -16.2702   23.8794 C   0  0  0  0  0  0  0  0  0  0  0  0
   20.8088  -17.3061   23.7196 H   0  0  0  0  0  0  0  0  0  0  0  0
   19.7277  -14.6286   20.7808 C   0  0  0  0  0  0  0  0  0  0  0  0
   19.4807  -15.4902   20.1604 H   0  0  0  0  0  0  0  0  0  0  0  0
   20.3972  -14.9386   21.5831 H   0  0  0  0  0  0  0  0  0  0  0  0
   18.5289  -13.9524   21.2908 N   0  0  0  0  0  0  0  0  0  0  0  0
   20.3106  -13.4662   19.9545 C   0  0  0  0  0  0  0  0  0  0  0  0
   21.0103  -13.8312   19.2026 H   0  0  0  0  0  0  0  0  0  0  0  0
   20.8121  -12.7415   20.5960 H   0  0  0  0  0  0  0  0  0  0  0  0
   19.0600  -12.8531   19.2971 C   0  0  0  0  0  0  0  0  0  0  0  0
   19.2497  -11.8271   18.9818 H   0  0  0  0  0  0  0  0  0  0  0  0
   18.7428  -13.4444   18.4381 H   0  0  0  0  0  0  0  0  0  0  0  0
   13.1396  -10.4800   19.4571 C   0  0  0  0  0  0  0  0  0  0  0  0
   13.7517   -9.9303   18.7921 H   0  0  0  0  0  0  0  0  0  0  0  0
   12.0985   -9.8489   20.1327 C   0  0  0  0  0  0  0  0  0  0  0  0
   11.8674   -8.5233   19.9370 O   0  0  0  0  0  0  0  0  0  0  0  0
   12.5049   -8.1528   19.2995 H   0  0  0  0  0  0  0  0  0  0  0  0
   11.2784  -10.5459   21.0099 C   0  0  0  0  0  0  0  0  0  0  0  0
   10.4910  -10.0444   21.5104 H   0  0  0  0  0  0  0  0  0  0  0  0
   11.5073  -11.9013   21.2161 C   0  0  0  0  0  0  0  0  0  0  0  0
   10.8892  -12.4466   21.8822 H   0  0  0  0  0  0  0  0  0  0  0  0
   16.6611  -16.6087   22.8658 N   0  0  0  0  0  0  0  0  0  0  0  0
   15.9928  -16.1177   23.4422 H   0  0  0  0  0  0  0  0  0  0  0  0
   16.7948  -17.5426   23.2264 H   0  0  0  0  0  0  0  0  0  0  0  0
   16.3150  -16.6601   21.9183 H   0  0  0  0  0  0  0  0  0  0  0  0
   16.4039  -14.4516   19.6483 O   0  0  0  0  0  0  0  0  0  0  0  0
   16.8817  -13.8304   22.8239 O   0  0  0  0  0  0  0  0  0  0  0  0
  1  2  1  0
  1  3  2  0
  1 46  1  0
  3  4  1  0
  3 39  1  0
  4  5  1  0
  4  6  1  0
  4 17  1  0
  7  8  1  0
  7 17  1  0
  7 52  2  0
  8  9  1  1
  8 32  1  0
  8 36  1  0
 10 11  1  0
 10 32  1  0
 10 53  2  0
 11 12  1  6
 11 13  1  0
 11 48  1  0
 13 14  1  0
 13 15  1  0
 13 16  1  0
 16 19  2  0
 16 27  1  0
 17 18  1  0
 19 20  1  0
 19 21  1  0
 21 22  1  0
 21 23  2  0
 23 24  1  0
 23 25  1  0
 25 26  1  0
 25 27  2  0
 27 28  1  0
 29 30  1  0
 29 31  1  0
 29 32  1  0
 29 33  1  0
 33 34  1  0
 33 35  1  0
 33 36  1  0
 36 37  1  0
 36 38  1  0
 39 40  1  0
 39 41  2  0
 41 42  1  0
 41 44  1  0
 42 43  1  0
 44 45  1  0
 44 46  2  0
 46 47  1  0
 48 49  1  0
 48 50  1  0
 48 51  1  0
M  CHG  1  48   1
M  END
> <intraLJ>
25.040    

> <intraEL>
2.868     

> <intraDihe>
16.141    

> <interLJ>
0.000     

> <interEJ>
0.000     

> <gridLJ>
-7.251    

> <gridEL>
0.000     

> <totalE>
36.799    

> <LGFE>
-7.251  

> <LE>
-0.269  

> <SMILES>
[NH3+]C(Cc1ccccc1)C(=O)N1CCCC1C(=O)NCc1cccc(O)c1

> <atom.dprop.GFE>
-0.15 0 -0.045 -0.098 0 0 0 -0.39 0 0 -0.27 0 -0.27 0 0 -0.24 -0.39 0 -0.27 0 -0.22 0 -0.25 0 -0.19 0 -0.24 0 -0.44 0 0 -0.15 -0.35 0 0 -0.49 0 0 -0.0065 0 -0.19 -0.72 0 -0.23 0 -0.19 0 -2 0 0 0 0.11 0.44

> <atom.prop.CLASS>
BENC NCLA BENC PRPC NCLA NCLA NCLA PRPC NCLA NCLA PRPC NCLA PRPC NCLA NCLA BENC GEND NCLA BENC NCLA BENC NCLA BENC NCLA BENC NCLA BENC NCLA PRPC NCLA NCLA GEHC PRPC NCLA NCLA PRPC NCLA NCLA BENC NCLA BENC MEOO NCLA BENC NCLA BENC NCLA MAMN NCLA NCLA NCLA GENA GENA

$$$$
thrombin_baum_08_2d
     RDKit          3D

 54 56  0  0  0  0  0  0  0  0999 V2000
   13.2156  -13.2980   20.3131 C   0  0  0  0  0  0  0  0  0  0  0  0
   13.5602  -14.2058   19.8878 H   0  0  0  0  0  0  0  0  0  0  0  0
   13.8137  -12.0870   19.9516 C   0  0  0  0  0  0  0  0  0  0  0  0
   14.9615  -12.1096   18.9431 C   0  0  0  0  0  0  0  0  0  0  0  0
   14.8906  -11.2477   18.2795 H   0  0  0  0  0  0  0  0  0  0  0  0
   14.9211  -13.0259   18.3541 H   0  0  0  0  0  0  0  0  0  0  0  0
   16.9242  -13.1842   19.8758 C   0  0  0  0  0  0  0  0  0  0  0  0
   18.3040  -13.0794   20.4910 C   0  0  1  0  0  0  0  0  0  0  0  0
   18.3105  -12.1137   20.9965 H   0  0  0  0  0  0  0  0  0  0  0  0
   17.7187  -14.5994   22.3452 C   0  0  0  0  0  0  0  0  0  0  0  0
   17.6654  -15.9546   23.0101 C   0  0  1  0  0  0  0  0  0  0  0  0
   18.3627  -16.6120   22.4907 H   0  0  0  0  0  0  0  0  0  0  0  0
   18.1459  -15.9061   24.4812 C   0  0  0  0  0  0  0  0  0  0  0  0
   17.9777  -16.8752   24.9509 H   0  0  0  0  0  0  0  0  0  0  0  0
   17.5894  -15.1395   25.0204 H   0  0  0  0  0  0  0  0  0  0  0  0
   19.6510  -15.5709   24.5177 C   0  0  0  0  0  0  0  0  0  0  0  0
   16.2115  -12.0565   19.6979 N   0  0  0  0  0  0  0  0  0  0  0  0
   16.5378  -11.1814   20.0826 H   0  0  0  0  0  0  0  0  0  0  0  0
   20.6331  -16.5543   24.3722 C   0  0  0  0  0  0  0  0  0  0  0  0
   20.3470  -17.5860   24.2300 H   0  0  0  0  0  0  0  0  0  0  0  0
   21.9921  -16.2019   24.4108 C   0  0  0  0  0  0  0  0  0  0  0  0
   22.7438  -16.9688   24.2961 H   0  0  0  0  0  0  0  0  0  0  0  0
   22.3842  -14.8819   24.5944 C   0  0  0  0  0  0  0  0  0  0  0  0
   23.4332  -14.6263   24.6227 H   0  0  0  0  0  0  0  0  0  0  0  0
   21.4081  -13.8799   24.7433 C   0  0  0  0  0  0  0  0  0  0  0  0
   21.6970  -12.8493   24.8873 H   0  0  0  0  0  0  0  0  0  0  0  0
   20.0557  -14.2408   24.7017 C   0  0  0  0  0  0  0  0  0  0  0  0
   19.3037  -13.4739   24.8145 H   0  0  0  0  0  0  0  0  0  0  0  0
   19.6559  -15.1094   20.9177 C   0  0  0  0  0  0  0  0  0  0  0  0
   19.2752  -15.9108   20.2843 H   0  0  0  0  0  0  0  0  0  0  0  0
   20.2174  -15.5380   21.7477 H   0  0  0  0  0  0  0  0  0  0  0  0
   18.5884  -14.2126   21.3765 N   0  0  0  0  0  0  0  0  0  0  0  0
   20.4872  -14.0853   20.1215 C   0  0  0  0  0  0  0  0  0  0  0  0
   21.1359  -14.5821   19.4001 H   0  0  0  0  0  0  0  0  0  0  0  0
   21.0901  -13.4670   20.7867 H   0  0  0  0  0  0  0  0  0  0  0  0
   19.4078  -13.2467   19.4115 C   0  0  0  0  0  0  0  0  0  0  0  0
   19.8050  -12.2780   19.1081 H   0  0  0  0  0  0  0  0  0  0  0  0
   19.0208  -13.7705   18.5375 H   0  0  0  0  0  0  0  0  0  0  0  0
   13.3547  -10.9060   20.5339 C   0  0  0  0  0  0  0  0  0  0  0  0
   13.7980   -9.9786   20.2848 H   0  0  0  0  0  0  0  0  0  0  0  0
   12.3046  -10.9398   21.4500 C   0  0  0  0  0  0  0  0  0  0  0  0
   11.8408   -9.7558   22.0042 N   0  0  0  0  0  0  0  0  0  0  0  0
   12.0260   -8.9199   21.4331 H   0  0  0  0  0  0  0  0  0  0  0  0
   10.8776   -9.8080   22.3640 H   0  0  0  0  0  0  0  0  0  0  0  0
   11.7107  -12.1473   21.8091 C   0  0  0  0  0  0  0  0  0  0  0  0
   10.9205  -12.1624   22.5128 H   0  0  0  0  0  0  0  0  0  0  0  0
   12.1698  -13.3264   21.2353 C   0  0  0  0  0  0  0  0  0  0  0  0
   11.7243  -14.2509   21.4991 H   0  0  0  0  0  0  0  0  0  0  0  0
   16.2957  -16.5374   22.8839 N   0  0  0  0  0  0  0  0  0  0  0  0
   15.6319  -15.9429   23.3591 H   0  0  0  0  0  0  0  0  0  0  0  0
   16.2817  -17.4576   23.2999 H   0  0  0  0  0  0  0  0  0  0  0  0
   16.0476  -16.6057   21.9072 H   0  0  0  0  0  0  0  0  0  0  0  0
   16.5118  -14.2976   19.5707 O   0  0  0  0  0  0  0  0  0  0  0  0
   16.8662  -13.7939   22.7684 O   0  0  0  0  0  0  0  0  0  0  0  0
  1  2  1  0
  1  3  2  0
  1 47  1  0
  3  4  1  0
  3 39  1  0
  4  5  1  0
  4  6  1  0
  4 17  1  0
  7  8  1  0
  7 17  1  0
  7 53  2  0
  8  9  1  1
  8 32  1  0
  8 36  1  0
 10 11  1  0
 10 32  1  0
 10 54  2  0
 11 12  1  6
 11 13  1  0
 11 49  1  0
 13 14  1  0
 13 15  1  0
 13 16  1  0
 16 19  2  0
 16 27  1  0
 17 18  1  0
 19 20  1  0
 19 21  1  0
 21 22  1  0
 21 23  2  0
 23 24  1  0
 23 25  1  0
 25 26  1  0
 25 27  2  0
 27 28  1  0
 29 30  1  0
 29 31  1  0
 29 32  1  0
 29 33  1  0
 33 34  1  0
 33 35  1  0
 33 36  1  0
 36 37  1  0
 36 38  1  0
 39 40  1  0
 39 41  2  0
 41 42  1  0
 41 45  1  0
 42 43  1  0
 42 44  1  0
 45 46  1  0
 45 47  2  0
 47 48  1  0
 49 50  1  0
 49 51  1  0
 49 52  1  0
M  CHG  1  49   1
M  END
> <intraLJ>
24.613    

> <intraEL>
2.549     

> <intraDihe>
18.176    

> <interLJ>
0.000     

> <interEJ>
0.000     

> <gridLJ>
-7.990    

> <gridEL>
0.000     

> <totalE>
37.348    

> <LGFE>
-7.990  

> <LE>
-0.296  

> <SMILES>
Nc1cccc(CNC(=O)C2CCCN2C(=O)C([NH3+])Cc2ccccc2)c1

> <atom.dprop.GFE>
-0.063 0 -0.081 -0.097 0 0 0 -0.39 0 0 -0.12 0 -0.27 0 0 -0.17 -0.5 0 -0.18 0 -0.22 0 -0.25 0 -0.22 0 -0.27 0 -0.46 0 0 -0.15 -0.48 0 0 -0.49 0 0 -0.061 0 -0.21 -1.6 0 0 -0.19 0 -0.11 0 -2 0 0 0 0.11 0.44

> <atom.prop.CLASS>
BENC NCLA BENC PRPC NCLA NCLA NCLA PRPC NCLA NCLA PRPC NCLA PRPC NCLA NCLA BENC GEND NCLA BENC NCLA BENC NCLA BENC NCLA BENC NCLA BENC NCLA PRPC NCLA NCLA GEHC PRPC NCLA NCLA PRPC NCLA NCLA BENC NCLA BENC GEND NCLA NCLA BENC NCLA BENC NCLA MAMN NCLA NCLA NCLA GENA GENA

$$$$
thrombin_baum_09_2e
     RDKit          3D

 54 56  0  0  0  0  0  0  0  0999 V2000
   13.2173  -13.1009   20.7841 C   0  0  0  0  0  0  0  0  0  0  0  0
   13.6548  -13.8763   20.2067 H   0  0  0  0  0  0  0  0  0  0  0  0
   13.6636  -11.7854   20.6254 C   0  0  0  0  0  0  0  0  0  0  0  0
   14.7802  -11.5073   19.6200 C   0  0  0  0  0  0  0  0  0  0  0  0
   14.7070  -10.4821   19.2569 H   0  0  0  0  0  0  0  0  0  0  0  0
   14.7039  -12.1968   18.7792 H   0  0  0  0  0  0  0  0  0  0  0  0
   16.7458  -12.8385   20.1112 C   0  0  0  0  0  0  0  0  0  0  0  0
   18.1452  -12.9429   20.6806 C   0  0  1  0  0  0  0  0  0  0  0  0
   18.2536  -12.0633   21.3152 H   0  0  0  0  0  0  0  0  0  0  0  0
   17.4722  -14.6546   22.3262 C   0  0  0  0  0  0  0  0  0  0  0  0
   17.4357  -16.0374   22.9329 C   0  0  1  0  0  0  0  0  0  0  0  0
   18.0812  -16.6833   22.3375 H   0  0  0  0  0  0  0  0  0  0  0  0
   18.0178  -16.0646   24.3675 C   0  0  0  0  0  0  0  0  0  0  0  0
   17.8073  -17.0303   24.8272 H   0  0  0  0  0  0  0  0  0  0  0  0
   17.5605  -15.2725   24.9605 H   0  0  0  0  0  0  0  0  0  0  0  0
   19.5434  -15.8457   24.3055 C   0  0  0  0  0  0  0  0  0  0  0  0
   16.0529  -11.7021   20.3109 N   0  0  0  0  0  0  0  0  0  0  0  0
   16.4094  -10.9904   20.9327 H   0  0  0  0  0  0  0  0  0  0  0  0
   20.4306  -16.8872   24.0206 C   0  0  0  0  0  0  0  0  0  0  0  0
   20.0534  -17.8823   23.8365 H   0  0  0  0  0  0  0  0  0  0  0  0
   21.8124  -16.6404   23.9735 C   0  0  0  0  0  0  0  0  0  0  0  0
   22.4900  -17.4514   23.7511 H   0  0  0  0  0  0  0  0  0  0  0  0
   22.3209  -15.3692   24.2087 C   0  0  0  0  0  0  0  0  0  0  0  0
   23.3861  -15.1950   24.1698 H   0  0  0  0  0  0  0  0  0  0  0  0
   21.4413  -14.3100   24.4977 C   0  0  0  0  0  0  0  0  0  0  0  0
   21.8212  -13.3162   24.6834 H   0  0  0  0  0  0  0  0  0  0  0  0
   20.0651  -14.5655   24.5408 C   0  0  0  0  0  0  0  0  0  0  0  0
   19.3870  -13.7543   24.7613 H   0  0  0  0  0  0  0  0  0  0  0  0
   19.3159  -15.1229   20.7668 C   0  0  0  0  0  0  0  0  0  0  0  0
   18.8468  -15.7897   20.0433 H   0  0  0  0  0  0  0  0  0  0  0  0
   19.8576  -15.7126   21.5063 H   0  0  0  0  0  0  0  0  0  0  0  0
   18.3477  -14.2110   21.3876 N   0  0  0  0  0  0  0  0  0  0  0  0
   20.2163  -14.0722   20.0893 C   0  0  0  0  0  0  0  0  0  0  0  0
   20.7974  -14.5158   19.2808 H   0  0  0  0  0  0  0  0  0  0  0  0
   20.8908  -13.6098   20.8101 H   0  0  0  0  0  0  0  0  0  0  0  0
   19.2001  -13.0503   19.5460 C   0  0  0  0  0  0  0  0  0  0  0  0
   19.6763  -12.0866   19.3652 H   0  0  0  0  0  0  0  0  0  0  0  0
   18.7437  -13.4086   18.6233 H   0  0  0  0  0  0  0  0  0  0  0  0
   13.0876  -10.7782   21.3989 C   0  0  0  0  0  0  0  0  0  0  0  0
   13.4151   -9.7745   21.2941 H   0  0  0  0  0  0  0  0  0  0  0  0
   12.0810  -11.1076   22.3129 C   0  0  0  0  0  0  0  0  0  0  0  0
   11.6272  -12.4205   22.4669 C   0  0  0  0  0  0  0  0  0  0  0  0
   10.8582  -12.6586   23.1592 H   0  0  0  0  0  0  0  0  0  0  0  0
   12.2058  -13.4181   21.6915 C   0  0  0  0  0  0  0  0  0  0  0  0
   11.8785  -14.4227   21.7890 H   0  0  0  0  0  0  0  0  0  0  0  0
   16.0484  -16.5885   22.8774 N   0  0  0  0  0  0  0  0  0  0  0  0
   15.4320  -16.0041   23.4237 H   0  0  0  0  0  0  0  0  0  0  0  0
   16.0434  -17.5263   23.2524 H   0  0  0  0  0  0  0  0  0  0  0  0
   15.7320  -16.6078   21.9185 H   0  0  0  0  0  0  0  0  0  0  0  0
   16.3004  -13.8004   19.4956 O   0  0  0  0  0  0  0  0  0  0  0  0
   16.5983  -13.8838   22.7700 O   0  0  0  0  0  0  0  0  0  0  0  0
   11.4927  -10.0509   23.1307 N   0  0  0  0  0  0  0  0  0  0  0  0
   10.7589  -10.3259   24.0661 O   0  0  0  0  0  0  0  0  0  0  0  0
   11.7305   -8.8781   22.8893 O   0  0  0  0  0  0  0  0  0  0  0  0
  1  2  1  0
  1  3  2  0
  1 44  1  0
  3  4  1  0
  3 39  1  0
  4  5  1  0
  4  6  1  0
  4 17  1  0
  7  8  1  0
  7 17  1  0
  7 50  2  0
  8  9  1  1
  8 32  1  0
  8 36  1  0
 10 11  1  0
 10 32  1  0
 10 51  2  0
 11 12  1  6
 11 13  1  0
 11 46  1  0
 13 14  1  0
 13 15  1  0
 13 16  1  0
 16 19  2  0
 16 27  1  0
 17 18  1  0
 19 20  1  0
 19 21  1  0
 21 22  1  0
 21 23  2  0
 23 24  1  0
 23 25  1  0
 25 26  1  0
 25 27  2  0
 27 28  1  0
 29 30  1  0
 29 31  1  0
 29 32  1  0
 29 33  1  0
 33 34  1  0
 33 35  1  0
 33 36  1  0
 36 37  1  0
 36 38  1  0
 39 40  1  0
 39 41  2  0
 41 42  1  0
 41 52  1  0
 42 43  1  0
 42 44  2  0
 44 45  1  0
 46 47  1  0
 46 48  1  0
 46 49  1  0
 52 53  2  0
 52 54  1  0
M  CHG  3  46   1  52   1  54  -1
M  END
> <intraLJ>
28.398    

> <intraEL>
6.300     

> <intraDihe>
16.538    

> <interLJ>
0.000     

> <interEJ>
0.000     

> <gridLJ>
-8.156    

> <gridEL>
0.000     

> <totalE>
43.080    

> <LGFE>
-8.156  

> <LE>
-0.281  

> <SMILES>
[NH3+]C(Cc1ccccc1)C(=O)N1CCCC1C(=O)NCc1cccc([N+](=O)[O-])c1

> <atom.dprop.GFE>
-0.063 0 -0.081 -0.001 0 0 0 -0.39 0 0 -0.12 0 -0.27 0 0 -0.17 -0.4 0 -0.18 0 -0.19 0 -0.25 0 -0.22 0 -0.24 0 -0.44 0 0 -0.15 -0.48 0 0 -0.49 0 0 0.025 0 -0.063 -0.063 0 -0.11 0 -2 0 0 0 0.11 0.83 0 -1.7 -1

> <atom.prop.CLASS>
BENC NCLA BENC PRPC NCLA NCLA NCLA PRPC NCLA NCLA PRPC NCLA PRPC NCLA NCLA BENC GEND NCLA BENC NCLA BENC NCLA BENC NCLA BENC NCLA BENC NCLA PRPC NCLA NCLA GEHC PRPC NCLA NCLA PRPC NCLA NCLA BENC NCLA BENC BENC NCLA BENC NCLA MAMN NCLA NCLA NCLA GENA GENA NCLA GENA GENA

$$$$
thrombin_baum_10_3a_2zf0
     RDKit          3D

 55 57  0  0  0  0  0  0  0  0999 V2000
   17.2212  -15.8076   24.4970 C   0  0  0  0  0  0  0  0  0  0  0  0
   16.9044  -16.5681   25.2107 H   0  0  0  0  0  0  0  0  0  0  0  0
   16.6774  -14.8822   24.6867 H   0  0  0  0  0  0  0  0  0  0  0  0
   15.5902  -16.9416   23.0068 N   0  0  0  0  0  0  0  0  0  0  0  0
   15.5609  -17.7083   23.6636 H   0  0  0  0  0  0  0  0  0  0  0  0
   15.4299  -17.2917   22.0731 H   0  0  0  0  0  0  0  0  0  0  0  0
   14.8740  -16.2694   23.2420 H   0  0  0  0  0  0  0  0  0  0  0  0
   15.9670  -14.5434   21.7838 O   0  0  0  0  0  0  0  0  0  0  0  0
   16.9096  -16.2939   23.0678 C   0  0  1  0  0  0  0  0  0  0  0  0
   17.6546  -17.0376   22.7851 H   0  0  0  0  0  0  0  0  0  0  0  0
   18.1817  -14.8230   21.6658 N   0  0  0  0  0  0  0  0  0  0  0  0
   16.9901  -13.9721   19.0814 O   0  0  0  0  0  0  0  0  0  0  0  0
   16.9917  -15.1383   22.0961 C   0  0  0  0  0  0  0  0  0  0  0  0
   16.7344  -11.9338   20.1956 N   0  0  0  0  0  0  0  0  0  0  0  0
   16.9130  -11.3662   21.0118 H   0  0  0  0  0  0  0  0  0  0  0  0
   19.1274  -15.8704   21.2902 C   0  0  0  0  0  0  0  0  0  0  0  0
   18.7591  -16.4464   20.4414 H   0  0  0  0  0  0  0  0  0  0  0  0
   19.3235  -16.5411   22.1268 H   0  0  0  0  0  0  0  0  0  0  0  0
   20.3980  -15.0637   20.9101 C   0  0  0  0  0  0  0  0  0  0  0  0
   21.0172  -15.6178   20.2047 H   0  0  0  0  0  0  0  0  0  0  0  0
   20.9856  -14.8188   21.7948 H   0  0  0  0  0  0  0  0  0  0  0  0
   19.8169  -13.7831   20.2551 C   0  0  0  0  0  0  0  0  0  0  0  0
   19.7110  -13.9128   19.1780 H   0  0  0  0  0  0  0  0  0  0  0  0
   20.4539  -12.9219   20.4564 H   0  0  0  0  0  0  0  0  0  0  0  0
   18.4380  -13.6133   20.9247 C   0  0  1  0  0  0  0  0  0  0  0  0
   18.4501  -12.7655   21.6097 H   0  0  0  0  0  0  0  0  0  0  0  0
   17.3481  -13.2217   19.9699 C   0  0  0  0  0  0  0  0  0  0  0  0
   15.8415  -11.5435   19.1353 C   0  0  0  0  0  0  0  0  0  0  0  0
   16.1866  -11.9628   18.1902 H   0  0  0  0  0  0  0  0  0  0  0  0
   15.8112  -10.4564   19.0609 H   0  0  0  0  0  0  0  0  0  0  0  0
   14.4485  -12.0772   19.4580 C   0  0  0  0  0  0  0  0  0  0  0  0
   13.6649  -11.4654   20.4422 C   0  0  0  0  0  0  0  0  0  0  0  0
   14.0450  -10.6092   20.9795 H   0  0  0  0  0  0  0  0  0  0  0  0
   12.3890  -11.9620   20.7311 C   0  0  0  0  0  0  0  0  0  0  0  0
   11.5192  -11.3106   21.7997 C   0  0  0  0  0  0  0  0  0  0  0  0
   12.0526  -10.4669   22.2377 H   0  0  0  0  0  0  0  0  0  0  0  0
   11.2916  -12.0398   22.5772 H   0  0  0  0  0  0  0  0  0  0  0  0
   10.5914  -10.9591   21.3484 H   0  0  0  0  0  0  0  0  0  0  0  0
   11.9160  -13.0665   20.0294 C   0  0  0  0  0  0  0  0  0  0  0  0
   10.9314  -13.4515   20.2501 H   0  0  0  0  0  0  0  0  0  0  0  0
   12.6911  -13.6893   19.0421 C   0  0  0  0  0  0  0  0  0  0  0  0
   12.3106  -14.5464   18.5063 H   0  0  0  0  0  0  0  0  0  0  0  0
   13.9628  -13.1854   18.7613 C   0  0  0  0  0  0  0  0  0  0  0  0
   14.5724  -13.6543   18.0031 H   0  0  0  0  0  0  0  0  0  0  0  0
   18.7180  -15.5534   24.6662 C   0  0  0  0  0  0  0  0  0  0  0  0
   19.2134  -14.2467   24.6914 C   0  0  0  0  0  0  0  0  0  0  0  0
   18.5350  -13.4124   24.5900 H   0  0  0  0  0  0  0  0  0  0  0  0
   20.5850  -14.0147   24.8474 C   0  0  0  0  0  0  0  0  0  0  0  0
   20.9572  -13.0012   24.8687 H   0  0  0  0  0  0  0  0  0  0  0  0
   21.4759  -15.0809   24.9755 C   0  0  0  0  0  0  0  0  0  0  0  0
   22.5342  -14.9001   25.0925 H   0  0  0  0  0  0  0  0  0  0  0  0
   20.9766  -16.3886   24.9501 C   0  0  0  0  0  0  0  0  0  0  0  0
   21.6550  -17.2231   25.0499 H   0  0  0  0  0  0  0  0  0  0  0  0
   19.6043  -16.6234   24.7961 C   0  0  0  0  0  0  0  0  0  0  0  0
   19.2307  -17.6365   24.7779 H   0  0  0  0  0  0  0  0  0  0  0  0
  1  2  1  0
  1  3  1  0
  1  9  1  0
  1 45  1  0
  4  5  1  0
  4  6  1  0
  4  7  1  0
  4  9  1  0
  8 13  2  0
  9 10  1  6
  9 13  1  0
 11 13  1  0
 11 16  1  0
 11 25  1  0
 12 27  2  0
 14 15  1  0
 14 27  1  0
 14 28  1  0
 16 17  1  0
 16 18  1  0
 16 19  1  0
 19 20  1  0
 19 21  1  0
 19 22  1  0
 22 23  1  0
 22 24  1  0
 22 25  1  0
 25 26  1  1
 25 27  1  0
 28 29  1  0
 28 30  1  0
 28 31  1  0
 31 32  2  0
 31 43  1  0
 32 33  1  0
 32 34  1  0
 34 35  1  0
 34 39  2  0
 35 36  1  0
 35 37  1  0
 35 38  1  0
 39 40  1  0
 39 41  1  0
 41 42  1  0
 41 43  2  0
 43 44  1  0
 45 46  2  0
 45 54  1  0
 46 47  1  0
 46 48  1  0
 48 49  1  0
 48 50  2  0
 50 51  1  0
 50 52  1  0
 52 53  1  0
 52 54  2  0
 54 55  1  0
M  CHG  1   4   1
M  END
> <intraLJ>
36.478    

> <intraEL>
4.660     

> <intraDihe>
21.756    

> <interLJ>
0.000     

> <interEJ>
0.000     

> <gridLJ>
-6.912    

> <gridEL>
0.000     

> <totalE>
55.983    

> <LGFE>
-6.912  

> <LE>
-0.256  

> <SMILES>
Cc1cccc(CNC(=O)C2CCCN2C(=O)C([NH3+])Cc2ccccc2)c1

> <atom.dprop.GFE>
-0.11 0 0 -2.4 0 0 0 0.086 -0.12 0 -0.15 0.021 0 -0.4 0 -0.34 0 0 -0.44 0 0 -0.5 0 0 -0.42 0 0 -0.097 0 0 -0.0005 -0.061 0 -0.21 -0.45 0 0 0 -0.15 0 0.016 0 0.027 0 -0.14 -0.16 0 -0.27 0 -0.28 0 -0.24 0 -0.13 0

> <atom.prop.CLASS>
PRPC NCLA NCLA MAMN NCLA NCLA NCLA GENA PRPC NCLA GEHC GENA NCLA GEND NCLA PRPC NCLA NCLA PRPC NCLA NCLA PRPC NCLA NCLA PRPC NCLA NCLA PRPC NCLA NCLA BENC BENC NCLA BENC PRPC NCLA NCLA NCLA BENC NCLA BENC NCLA BENC NCLA BENC BENC NCLA BENC NCLA BENC NCLA BENC NCLA BENC NCLA

$$$$
thrombin_baum_11_3b
     RDKit          3D

 58 60  0  0  0  0  0  0  0  0999 V2000
   13.3618  -13.8687   20.3966 C   0  0  0  0  0  0  0  0  0  0  0  0
   13.9550  -14.7298   20.2225 H   0  0  0  0  0  0  0  0  0  0  0  0
   13.7456  -12.6368   19.8580 C   0  0  0  0  0  0  0  0  0  0  0  0
   15.0254  -12.5682   19.0260 C   0  0  0  0  0  0  0  0  0  0  0  0
   14.9659  -11.7404   18.3194 H   0  0  0  0  0  0  0  0  0  0  0  0
   15.1651  -13.5018   18.4808 H   0  0  0  0  0  0  0  0  0  0  0  0
   17.1479  -13.2481   19.9798 C   0  0  0  0  0  0  0  0  0  0  0  0
   18.3792  -12.9184   20.7975 C   0  0  1  0  0  0  0  0  0  0  0  0
   18.1419  -11.9753   21.2898 H   0  0  0  0  0  0  0  0  0  0  0  0
   17.7909  -14.5497   22.5536 C   0  0  0  0  0  0  0  0  0  0  0  0
   17.8717  -15.9061   23.2134 C   0  0  1  0  0  0  0  0  0  0  0  0
   18.7350  -16.4294   22.8022 H   0  0  0  0  0  0  0  0  0  0  0  0
   18.1259  -15.8035   24.7373 C   0  0  0  0  0  0  0  0  0  0  0  0
   17.9217  -16.7663   25.2057 H   0  0  0  0  0  0  0  0  0  0  0  0
   17.4704  -15.0450   25.1650 H   0  0  0  0  0  0  0  0  0  0  0  0
   19.5970  -15.4120   24.9860 C   0  0  0  0  0  0  0  0  0  0  0  0
   16.1391  -12.3578   19.9482 N   0  0  0  0  0  0  0  0  0  0  0  0
   16.1517  -11.5516   20.5565 H   0  0  0  0  0  0  0  0  0  0  0  0
   20.6157  -16.3658   25.0590 C   0  0  0  0  0  0  0  0  0  0  0  0
   20.3832  -17.4139   24.9408 H   0  0  0  0  0  0  0  0  0  0  0  0
   21.9416  -15.9623   25.2860 C   0  0  0  0  0  0  0  0  0  0  0  0
   22.7222  -16.7067   25.3394 H   0  0  0  0  0  0  0  0  0  0  0  0
   22.2645  -14.6203   25.4429 C   0  0  0  0  0  0  0  0  0  0  0  0
   23.2887  -14.3253   25.6177 H   0  0  0  0  0  0  0  0  0  0  0  0
   21.2507  -13.6475   25.3730 C   0  0  0  0  0  0  0  0  0  0  0  0
   21.4856  -12.6003   25.4934 H   0  0  0  0  0  0  0  0  0  0  0  0
   19.9319  -14.0594   25.1447 C   0  0  0  0  0  0  0  0  0  0  0  0
   19.1513  -13.3151   25.0893 H   0  0  0  0  0  0  0  0  0  0  0  0
   19.9809  -14.6929   21.4429 C   0  0  0  0  0  0  0  0  0  0  0  0
   19.8451  -15.5363   20.7658 H   0  0  0  0  0  0  0  0  0  0  0  0
   20.4755  -15.0333   22.3525 H   0  0  0  0  0  0  0  0  0  0  0  0
   18.7174  -14.0016   21.7258 N   0  0  0  0  0  0  0  0  0  0  0  0
   20.7338  -13.5268   20.7742 C   0  0  0  0  0  0  0  0  0  0  0  0
   21.5604  -13.8915   20.1644 H   0  0  0  0  0  0  0  0  0  0  0  0
   21.1127  -12.8262   21.5182 H   0  0  0  0  0  0  0  0  0  0  0  0
   19.6462  -12.8739   19.9006 C   0  0  0  0  0  0  0  0  0  0  0  0
   19.9114  -11.8460   19.6530 H   0  0  0  0  0  0  0  0  0  0  0  0
   19.4928  -13.4407   18.9823 H   0  0  0  0  0  0  0  0  0  0  0  0
   12.9611  -11.5079   20.0891 C   0  0  0  0  0  0  0  0  0  0  0  0
   13.2468  -10.5741   19.6790 H   0  0  0  0  0  0  0  0  0  0  0  0
   11.8004  -11.5993   20.8555 C   0  0  0  0  0  0  0  0  0  0  0  0
   10.9500  -10.3692   21.1036 C   0  0  0  0  0  0  0  0  0  0  0  0
    9.9067  -10.6521   21.2507 H   0  0  0  0  0  0  0  0  0  0  0  0
   11.0195   -9.6820   20.2589 H   0  0  0  0  0  0  0  0  0  0  0  0
   11.5053   -9.7094   22.3707 C   0  0  0  0  0  0  0  0  0  0  0  0
   10.9304   -8.8114   22.5975 H   0  0  0  0  0  0  0  0  0  0  0  0
   12.5504   -9.4361   22.2188 H   0  0  0  0  0  0  0  0  0  0  0  0
   11.4359  -10.4003   23.2117 H   0  0  0  0  0  0  0  0  0  0  0  0
   11.4230  -12.8328   21.3841 C   0  0  0  0  0  0  0  0  0  0  0  0
   10.5383  -12.9129   21.9617 H   0  0  0  0  0  0  0  0  0  0  0  0
   12.2006  -13.9639   21.1560 C   0  0  0  0  0  0  0  0  0  0  0  0
   11.9062  -14.8983   21.5595 H   0  0  0  0  0  0  0  0  0  0  0  0
   16.6502  -16.7062   22.8987 N   0  0  0  0  0  0  0  0  0  0  0  0
   15.8363  -16.2386   23.2714 H   0  0  0  0  0  0  0  0  0  0  0  0
   16.7317  -17.6229   23.3147 H   0  0  0  0  0  0  0  0  0  0  0  0
   16.5566  -16.7981   21.8973 H   0  0  0  0  0  0  0  0  0  0  0  0
   17.1207  -14.3193   19.3844 O   0  0  0  0  0  0  0  0  0  0  0  0
   16.7582  -13.9102   22.8357 O   0  0  0  0  0  0  0  0  0  0  0  0
  1  2  1  0
  1  3  2  0
  1 51  1  0
  3  4  1  0
  3 39  1  0
  4  5  1  0
  4  6  1  0
  4 17  1  0
  7  8  1  0
  7 17  1  0
  7 57  2  0
  8  9  1  1
  8 32  1  0
  8 36  1  0
 10 11  1  0
 10 32  1  0
 10 58  2  0
 11 12  1  6
 11 13  1  0
 11 53  1  0
 13 14  1  0
 13 15  1  0
 13 16  1  0
 16 19  2  0
 16 27  1  0
 17 18  1  0
 19 20  1  0
 19 21  1  0
 21 22  1  0
 21 23  2  0
 23 24  1  0
 23 25  1  0
 25 26  1  0
 25 27  2  0
 27 28  1  0
 29 30  1  0
 29 31  1  0
 29 32  1  0
 29 33  1  0
 33 34  1  0
 33 35  1  0
 33 36  1  0
 36 37  1  0
 36 38  1  0
 39 40  1  0
 39 41  2  0
 41 42  1  0
 41 49  1  0
 42 43  1  0
 42 44  1  0
 42 45  1  0
 45 46  1  0
 45 47  1  0
 45 48  1  0
 49 50  1  0
 49 51  2  0
 51 52  1  0
 53 54  1  0
 53 55  1  0
 53 56  1  0
M  CHG  1  53   1
M  END
> <intraLJ>
24.911    

> <intraEL>
4.701     

> <intraDihe>
17.776    

> <interLJ>
0.000     

> <interEJ>
0.000     

> <gridLJ>
-6.662    

> <gridEL>
0.000     

> <totalE>
40.727    

> <LGFE>
-6.662  

> <LE>
-0.238  

> <SMILES>
CCc1cccc(CNC(=O)C2CCCN2C(=O)C([NH3+])Cc2ccccc2)c1

> <atom.dprop.GFE>
-0.016 0 -0.063 -0.1 0 0 0 -0.39 0 0 -0.27 0 -0.27 0 0 -0.17 -0.4 0 -0.2 0 -0.22 0 -0.21 0 -0.23 0 -0.25 0 -0.44 0 0 -0.15 -0.48 0 0 -0.42 0 0 -0.081 0 -0.19 -0.47 0 0 -0.32 0 0 0 -0.14 0 -0.031 0 -2 0 0 0 0.021 0.83

> <atom.prop.CLASS>
BENC NCLA BENC PRPC NCLA NCLA NCLA PRPC NCLA NCLA PRPC NCLA PRPC NCLA NCLA BENC GEND NCLA BENC NCLA BENC NCLA BENC NCLA BENC NCLA BENC NCLA PRPC NCLA NCLA GEHC PRPC NCLA NCLA PRPC NCLA NCLA BENC NCLA BENC PRPC NCLA NCLA PRPC NCLA NCLA NCLA BENC NCLA BENC NCLA MAMN NCLA NCLA NCLA GENA GENA

$$$$
thrombin_baum_12_3c
     RDKit          3D

 61 63  0  0  0  0  0  0  0  0999 V2000
   13.4349  -13.5898   20.3424 C   0  0  0  0  0  0  0  0  0  0  0  0
   13.9056  -14.4358   19.9106 H   0  0  0  0  0  0  0  0  0  0  0  0
   13.8460  -12.3030   19.9817 C   0  0  0  0  0  0  0  0  0  0  0  0
   14.9766  -12.1536   18.9647 C   0  0  0  0  0  0  0  0  0  0  0  0
   14.8551  -11.2250   18.4071 H   0  0  0  0  0  0  0  0  0  0  0  0
   14.9688  -12.9963   18.2733 H   0  0  0  0  0  0  0  0  0  0  0  0
   16.9789  -13.2480   19.7834 C   0  0  0  0  0  0  0  0  0  0  0  0
   18.3640  -13.1569   20.3889 C   0  0  1  0  0  0  0  0  0  0  0  0
   18.3831  -12.1920   20.8955 H   0  0  0  0  0  0  0  0  0  0  0  0
   17.7777  -14.6737   22.2454 C   0  0  0  0  0  0  0  0  0  0  0  0
   17.7915  -15.9864   22.9925 C   0  0  1  0  0  0  0  0  0  0  0  0
   18.5121  -16.6434   22.5053 H   0  0  0  0  0  0  0  0  0  0  0  0
   18.2844  -15.8263   24.4515 C   0  0  0  0  0  0  0  0  0  0  0  0
   18.1808  -16.7759   24.9767 H   0  0  0  0  0  0  0  0  0  0  0  0
   17.6882  -15.0655   24.9554 H   0  0  0  0  0  0  0  0  0  0  0  0
   19.7666  -15.3994   24.4476 C   0  0  0  0  0  0  0  0  0  0  0  0
   16.2353  -12.1288   19.7066 N   0  0  0  0  0  0  0  0  0  0  0  0
   16.5443  -11.2797   20.1577 H   0  0  0  0  0  0  0  0  0  0  0  0
   20.8059  -16.3307   24.3747 C   0  0  0  0  0  0  0  0  0  0  0  0
   20.5822  -17.3859   24.3198 H   0  0  0  0  0  0  0  0  0  0  0  0
   22.1412  -15.8953   24.3727 C   0  0  0  0  0  0  0  0  0  0  0  0
   22.9375  -16.6226   24.3146 H   0  0  0  0  0  0  0  0  0  0  0  0
   22.4533  -14.5436   24.4444 C   0  0  0  0  0  0  0  0  0  0  0  0
   23.4850  -14.2240   24.4427 H   0  0  0  0  0  0  0  0  0  0  0  0
   21.4188  -13.5931   24.5192 C   0  0  0  0  0  0  0  0  0  0  0  0
   21.6453  -12.5387   24.5760 H   0  0  0  0  0  0  0  0  0  0  0  0
   20.0906  -14.0369   24.5189 C   0  0  0  0  0  0  0  0  0  0  0  0
   19.2940  -13.3098   24.5750 H   0  0  0  0  0  0  0  0  0  0  0  0
   19.6997  -15.2001   20.8034 C   0  0  0  0  0  0  0  0  0  0  0  0
   19.3071  -15.9970   20.1719 H   0  0  0  0  0  0  0  0  0  0  0  0
   20.2632  -15.6349   21.6289 H   0  0  0  0  0  0  0  0  0  0  0  0
   18.6440  -14.2938   21.2710 N   0  0  0  0  0  0  0  0  0  0  0  0
   20.5349  -14.1827   20.0026 C   0  0  0  0  0  0  0  0  0  0  0  0
   21.1737  -14.6847   19.2759 H   0  0  0  0  0  0  0  0  0  0  0  0
   21.1483  -13.5710   20.6642 H   0  0  0  0  0  0  0  0  0  0  0  0
   19.4585  -13.3332   19.3013 C   0  0  0  0  0  0  0  0  0  0  0  0
   19.8626  -12.3679   18.9962 H   0  0  0  0  0  0  0  0  0  0  0  0
   19.0603  -13.8523   18.4295 H   0  0  0  0  0  0  0  0  0  0  0  0
   13.2206  -11.1941   20.5491 C   0  0  0  0  0  0  0  0  0  0  0  0
   13.5323  -10.2215   20.2721 H   0  0  0  0  0  0  0  0  0  0  0  0
   12.1879  -11.3562   21.4760 C   0  0  0  0  0  0  0  0  0  0  0  0
   11.4883  -10.1608   22.1116 C   0  0  0  0  0  0  0  0  0  0  0  0
    9.9986  -10.1985   21.7475 C   0  0  0  0  0  0  0  0  0  0  0  0
    9.5023   -9.3117   22.1416 H   0  0  0  0  0  0  0  0  0  0  0  0
    9.5220  -11.0850   22.1640 H   0  0  0  0  0  0  0  0  0  0  0  0
    9.8909  -10.2122   20.6623 H   0  0  0  0  0  0  0  0  0  0  0  0
   11.9050   -9.2221   21.7408 H   0  0  0  0  0  0  0  0  0  0  0  0
   11.6961  -10.2087   23.6304 C   0  0  0  0  0  0  0  0  0  0  0  0
   11.2501   -9.3264   24.0897 H   0  0  0  0  0  0  0  0  0  0  0  0
   12.7642  -10.2212   23.8501 H   0  0  0  0  0  0  0  0  0  0  0  0
   11.2354  -11.1003   24.0547 H   0  0  0  0  0  0  0  0  0  0  0  0
   11.7869  -12.6462   21.8252 C   0  0  0  0  0  0  0  0  0  0  0  0
   11.0033  -12.7867   22.5245 H   0  0  0  0  0  0  0  0  0  0  0  0
   12.4057  -13.7576   21.2614 C   0  0  0  0  0  0  0  0  0  0  0  0
   12.0901  -14.7324   21.5315 H   0  0  0  0  0  0  0  0  0  0  0  0
   16.4479  -16.6352   22.9198 N   0  0  0  0  0  0  0  0  0  0  0  0
   15.7632  -16.0422   23.3664 H   0  0  0  0  0  0  0  0  0  0  0  0
   16.4791  -17.5278   23.3915 H   0  0  0  0  0  0  0  0  0  0  0  0
   16.1931  -16.7744   21.9525 H   0  0  0  0  0  0  0  0  0  0  0  0
   16.5909  -14.3434   19.3933 O   0  0  0  0  0  0  0  0  0  0  0  0
   16.8686  -13.8981   22.6013 O   0  0  0  0  0  0  0  0  0  0  0  0
  1  2  1  0
  1  3  2  0
  1 54  1  0
  3  4  1  0
  3 39  1  0
  4  5  1  0
  4  6  1  0
  4 17  1  0
  7  8  1  0
  7 17  1  0
  7 60  2  0
  8  9  1  1
  8 32  1  0
  8 36  1  0
 10 11  1  0
 10 32  1  0
 10 61  2  0
 11 12  1  6
 11 13  1  0
 11 56  1  0
 13 14  1  0
 13 15  1  0
 13 16  1  0
 16 19  2  0
 16 27  1  0
 17 18  1  0
 19 20  1  0
 19 21  1  0
 21 22  1  0
 21 23  2  0
 23 24  1  0
 23 25  1  0
 25 26  1  0
 25 27  2  0
 27 28  1  0
 29 30  1  0
 29 31  1  0
 29 32  1  0
 29 33  1  0
 33 34  1  0
 33 35  1  0
 33 36  1  0
 36 37  1  0
 36 38  1  0
 39 40  1  0
 39 41  2  0
 41 42  1  0
 41 52  1  0
 42 43  1  0
 42 47  1  0
 42 48  1  0
 43 44  1  0
 43 45  1  0
 43 46  1  0
 48 49  1  0
 48 50  1  0
 48 51  1  0
 52 53  1  0
 52 54  2  0
 54 55  1  0
 56 57  1  0
 56 58  1  0
 56 59  1  0
M  CHG  1  56   1
M  END
> <intraLJ>
25.466    

> <intraEL>
4.199     

> <intraDihe>
17.629    

> <interLJ>
0.000     

> <interEJ>
0.000     

> <gridLJ>
-6.833    

> <gridEL>
0.000     

> <totalE>
40.462    

> <LGFE>
-6.833  

> <LE>
-0.236  

> <SMILES>
CC(C)c1cccc(CNC(=O)C2CCCN2C(=O)C([NH3+])Cc2ccccc2)c1

> <atom.dprop.GFE>
-0.016 0 -0.081 -0.097 0 0 0 -0.39 0 0 -0.12 0 -0.27 0 0 -0.2 -0.5 0 -0.2 0 -0.22 0 -0.25 0 -0.22 0 -0.27 0 -0.44 0 0 -0.15 -0.48 0 0 -0.49 0 0 -0.061 0 -0.21 -0.32 0.025 0 0 0 0 -0.26 0 0 0 -0.14 0 -0.031 0 -2 0 0 0 0.11 0.44

> <atom.prop.CLASS>
BENC NCLA BENC PRPC NCLA NCLA NCLA PRPC NCLA NCLA PRPC NCLA PRPC NCLA NCLA BENC GEND NCLA BENC NCLA BENC NCLA BENC NCLA BENC NCLA BENC NCLA PRPC NCLA NCLA GEHC PRPC NCLA NCLA PRPC NCLA NCLA BENC NCLA BENC PRPC PRPC NCLA NCLA NCLA NCLA PRPC NCLA NCLA NCLA BENC NCLA BENC NCLA MAMN NCLA NCLA NCLA GENA GENA

$$$$
thrombin_baum_13_3d
     RDKit          3D

 64 66  0  0  0  0  0  0  0  0999 V2000
   12.4526  -14.4304   20.8150 C   0  0  0  0  0  0  0  0  0  0  0  0
   12.5370  -15.4863   20.8575 H   0  0  0  0  0  0  0  0  0  0  0  0
   13.3137  -13.6942   19.9956 C   0  0  0  0  0  0  0  0  0  0  0  0
   14.3644  -14.4434   19.1774 C   0  0  0  0  0  0  0  0  0  0  0  0
   14.3002  -14.1483   18.1300 H   0  0  0  0  0  0  0  0  0  0  0  0
   14.2052  -15.5184   19.2624 H   0  0  0  0  0  0  0  0  0  0  0  0
   16.6517  -15.0160   19.7411 C   0  0  0  0  0  0  0  0  0  0  0  0
   18.0519  -14.5829   20.1219 C   0  0  1  0  0  0  0  0  0  0  0  0
   17.9773  -13.5068   20.2783 H   0  0  0  0  0  0  0  0  0  0  0  0
   17.8116  -15.4311   22.4271 C   0  0  0  0  0  0  0  0  0  0  0  0
   17.9876  -16.4742   23.5053 C   0  0  1  0  0  0  0  0  0  0  0  0
   18.7366  -17.1886   23.1633 H   0  0  0  0  0  0  0  0  0  0  0  0
   18.5455  -15.8728   24.8184 C   0  0  0  0  0  0  0  0  0  0  0  0
   18.5300  -16.6312   25.6013 H   0  0  0  0  0  0  0  0  0  0  0  0
   17.9298  -15.0258   25.1209 H   0  0  0  0  0  0  0  0  0  0  0  0
   19.9955  -15.3992   24.5895 C   0  0  0  0  0  0  0  0  0  0  0  0
   15.6759  -14.0894   19.7157 N   0  0  0  0  0  0  0  0  0  0  0  0
   15.8486  -13.1578   20.0657 H   0  0  0  0  0  0  0  0  0  0  0  0
   20.3017  -14.0702   24.2846 C   0  0  0  0  0  0  0  0  0  0  0  0
   19.5108  -13.3394   24.2020 H   0  0  0  0  0  0  0  0  0  0  0  0
   21.6374  -13.6844   24.0856 C   0  0  0  0  0  0  0  0  0  0  0  0
   21.8642  -12.6547   23.8517 H   0  0  0  0  0  0  0  0  0  0  0  0
   22.6713  -14.6069   24.1848 C   0  0  0  0  0  0  0  0  0  0  0  0
   23.6935  -14.2954   24.0283 H   0  0  0  0  0  0  0  0  0  0  0  0
   22.3800  -15.9489   24.4902 C   0  0  0  0  0  0  0  0  0  0  0  0
   23.1726  -16.6781   24.5704 H   0  0  0  0  0  0  0  0  0  0  0  0
   21.0453  -16.3237   24.6886 C   0  0  0  0  0  0  0  0  0  0  0  0
   20.8183  -17.3529   24.9243 H   0  0  0  0  0  0  0  0  0  0  0  0
   19.6776  -16.2152   21.0293 C   0  0  0  0  0  0  0  0  0  0  0  0
   19.3514  -17.2151   20.7430 H   0  0  0  0  0  0  0  0  0  0  0  0
   20.3528  -16.2836   21.8822 H   0  0  0  0  0  0  0  0  0  0  0  0
   18.5459  -15.3177   21.2903 N   0  0  0  0  0  0  0  0  0  0  0  0
   20.3077  -15.4500   19.8498 C   0  0  0  0  0  0  0  0  0  0  0  0
   20.9542  -16.1004   19.2605 H   0  0  0  0  0  0  0  0  0  0  0  0
   20.8792  -14.5904   20.2000 H   0  0  0  0  0  0  0  0  0  0  0  0
   19.0786  -15.0044   19.0356 C   0  0  0  0  0  0  0  0  0  0  0  0
   19.3256  -14.1639   18.3870 H   0  0  0  0  0  0  0  0  0  0  0  0
   18.6921  -15.8267   18.4334 H   0  0  0  0  0  0  0  0  0  0  0  0
   13.1993  -12.3064   19.9441 C   0  0  0  0  0  0  0  0  0  0  0  0
   13.8547  -11.7606   19.3179 H   0  0  0  0  0  0  0  0  0  0  0  0
   12.2372  -11.6304   20.7029 C   0  0  0  0  0  0  0  0  0  0  0  0
   12.1548  -10.0935   20.6153 C   0  0  0  0  0  0  0  0  0  0  0  0
   13.4618   -9.4704   21.1332 C   0  0  0  0  0  0  0  0  0  0  0  0
   13.3962   -8.3823   21.1142 H   0  0  0  0  0  0  0  0  0  0  0  0
   14.3053   -9.7746   20.5154 H   0  0  0  0  0  0  0  0  0  0  0  0
   13.6423   -9.7987   22.1576 H   0  0  0  0  0  0  0  0  0  0  0  0
   11.0091   -9.4960   21.4536 C   0  0  0  0  0  0  0  0  0  0  0  0
   11.0007   -8.4093   21.3631 H   0  0  0  0  0  0  0  0  0  0  0  0
   11.1411   -9.7525   22.5055 H   0  0  0  0  0  0  0  0  0  0  0  0
   10.0492   -9.8759   21.1023 H   0  0  0  0  0  0  0  0  0  0  0  0
   11.9207   -9.6700   19.1565 C   0  0  0  0  0  0  0  0  0  0  0  0
   11.8236   -8.5862   19.0879 H   0  0  0  0  0  0  0  0  0  0  0  0
   11.0070  -10.1344   18.7833 H   0  0  0  0  0  0  0  0  0  0  0  0
   12.7527   -9.9835   18.5274 H   0  0  0  0  0  0  0  0  0  0  0  0
   11.3816  -12.3879   21.5144 C   0  0  0  0  0  0  0  0  0  0  0  0
   10.6360  -11.9222   22.1022 H   0  0  0  0  0  0  0  0  0  0  0  0
   11.4886  -13.7743   21.5686 C   0  0  0  0  0  0  0  0  0  0  0  0
   10.8313  -14.3305   22.1860 H   0  0  0  0  0  0  0  0  0  0  0  0
   16.7071  -17.2119   23.7231 N   0  0  0  0  0  0  0  0  0  0  0  0
   15.9973  -16.5676   24.0410 H   0  0  0  0  0  0  0  0  0  0  0  0
   16.8464  -17.9299   24.4196 H   0  0  0  0  0  0  0  0  0  0  0  0
   16.4118  -17.6371   22.8558 H   0  0  0  0  0  0  0  0  0  0  0  0
   16.4654  -16.1986   19.4773 O   0  0  0  0  0  0  0  0  0  0  0  0
   16.8960  -14.6162   22.6557 O   0  0  0  0  0  0  0  0  0  0  0  0
  1  2  1  0
  1  3  2  0
  1 57  1  0
  3  4  1  0
  3 39  1  0
  4  5  1  0
  4  6  1  0
  4 17  1  0
  7  8  1  0
  7 17  1  0
  7 63  2  0
  8  9  1  1
  8 32  1  0
  8 36  1  0
 10 11  1  0
 10 32  1  0
 10 64  2  0
 11 12  1  6
 11 13  1  0
 11 59  1  0
 13 14  1  0
 13 15  1  0
 13 16  1  0
 16 19  2  0
 16 27  1  0
 17 18  1  0
 19 20  1  0
 19 21  1  0
 21 22  1  0
 21 23  2  0
 23 24  1  0
 23 25  1  0
 25 26  1  0
 25 27  2  0
 27 28  1  0
 29 30  1  0
 29 31  1  0
 29 32  1  0
 29 33  1  0
 33 34  1  0
 33 35  1  0
 33 36  1  0
 36 37  1  0
 36 38  1  0
 39 40  1  0
 39 41  2  0
 41 42  1  0
 41 55  1  0
 42 43  1  0
 42 47  1  0
 42 51  1  0
 43 44  1  0
 43 45  1  0
 43 46  1  0
 47 48  1  0
 47 49  1  0
 47 50  1  0
 51 52  1  0
 51 53  1  0
 51 54  1  0
 55 56  1  0
 55 57  2  0
 57 58  1  0
 59 60  1  0
 59 61  1  0
 59 62  1  0
M  CHG  1  59   1
M  END
> <intraLJ>
26.414    

> <intraEL>
2.778     

> <intraDihe>
18.166    

> <interLJ>
0.000     

> <interEJ>
0.000     

> <gridLJ>
-6.898    

> <gridEL>
0.000     

> <totalE>
40.460    

> <LGFE>
-6.898  

> <LE>
-0.230  

> <SMILES>
CC(C)(C)c1cccc(CNC(=O)C2CCCN2C(=O)C([NH3+])Cc2ccccc2)c1

> <atom.dprop.GFE>
-0.069 0 -0.016 -0.0093 0 0 0 -0.36 0 0 -0.15 0 -0.27 0 0 -0.24 -0.06 0 -0.27 0 -0.22 0 -0.25 0 -0.22 0 -0.24 0 -0.34 0 0 -0.15 -0.4 0 0 -0.36 0 0 -0.081 0 -0.21 -0.38 0.17 0 0 0 -0.47 0 0 0 -0.07 0 0 0 -0.19 0 -0.027 0 -2 0 0 0 0.21 -0.2

> <atom.prop.CLASS>
BENC NCLA BENC PRPC NCLA NCLA NCLA PRPC NCLA NCLA PRPC NCLA PRPC NCLA NCLA BENC GEND NCLA BENC NCLA BENC NCLA BENC NCLA BENC NCLA BENC NCLA PRPC NCLA NCLA GEHC PRPC NCLA NCLA PRPC NCLA NCLA BENC NCLA BENC PRPC PRPC NCLA NCLA NCLA PRPC NCLA NCLA NCLA PRPC NCLA NCLA NCLA BENC NCLA BENC NCLA MAMN NCLA NCLA NCLA GENA GENA

$$$$
thrombin_baum_14_4_2zda
     RDKit          3D

 58 60  0  0  0  0  0  0  0  0999 V2000
   18.0525  -13.0667   20.4514 C   0  0  1  0  0  0  0  0  0  0  0  0
   18.0568  -12.1107   20.9751 H   0  0  0  0  0  0  0  0  0  0  0  0
   18.4752  -14.1900   21.2522 N   0  0  0  0  0  0  0  0  0  0  0  0
   19.0263  -13.1831   19.2416 C   0  0  0  0  0  0  0  0  0  0  0  0
   19.2143  -12.2119   18.7839 H   0  0  0  0  0  0  0  0  0  0  0  0
   18.6476  -13.8730   18.4874 H   0  0  0  0  0  0  0  0  0  0  0  0
   20.2923  -13.7390   19.9365 C   0  0  0  0  0  0  0  0  0  0  0  0
   20.8028  -12.9566   20.4981 H   0  0  0  0  0  0  0  0  0  0  0  0
   20.9787  -14.1696   19.2074 H   0  0  0  0  0  0  0  0  0  0  0  0
   19.7392  -14.8321   20.8884 C   0  0  0  0  0  0  0  0  0  0  0  0
   19.5840  -15.7815   20.3760 H   0  0  0  0  0  0  0  0  0  0  0  0
   20.3841  -14.9870   21.7533 H   0  0  0  0  0  0  0  0  0  0  0  0
   17.9345  -15.8665   23.0517 C   0  0  1  0  0  0  0  0  0  0  0  0
   18.6663  -16.4297   22.4726 H   0  0  0  0  0  0  0  0  0  0  0  0
   19.9432  -15.2657   24.4733 C   0  0  0  0  0  0  0  0  0  0  0  0
   16.6507  -13.3349   19.9315 C   0  0  0  0  0  0  0  0  0  0  0  0
   20.2979  -13.9170   24.5761 C   0  0  0  0  0  0  0  0  0  0  0  0
   19.5302  -13.1634   24.6726 H   0  0  0  0  0  0  0  0  0  0  0  0
   21.6407  -13.5437   24.5543 C   0  0  0  0  0  0  0  0  0  0  0  0
   21.9047  -12.4996   24.6354 H   0  0  0  0  0  0  0  0  0  0  0  0
   22.6461  -14.4984   24.4295 C   0  0  0  0  0  0  0  0  0  0  0  0
   23.6846  -14.2025   24.4142 H   0  0  0  0  0  0  0  0  0  0  0  0
   22.2893  -15.8496   24.3240 C   0  0  0  0  0  0  0  0  0  0  0  0
   23.0553  -16.6043   24.2247 H   0  0  0  0  0  0  0  0  0  0  0  0
   20.9513  -16.2175   24.3470 C   0  0  0  0  0  0  0  0  0  0  0  0
   20.6872  -17.2616   24.2655 H   0  0  0  0  0  0  0  0  0  0  0  0
   16.6712  -16.6418   23.0612 N   0  0  0  0  0  0  0  0  0  0  0  0
   15.9732  -16.1415   23.5927 H   0  0  0  0  0  0  0  0  0  0  0  0
   16.8334  -17.5445   23.4842 H   0  0  0  0  0  0  0  0  0  0  0  0
   16.3463  -16.7677   22.1132 H   0  0  0  0  0  0  0  0  0  0  0  0
   17.7674  -14.5337   22.3664 C   0  0  0  0  0  0  0  0  0  0  0  0
   10.7801  -11.3122   23.1984 C   0  0  0  0  0  0  0  0  0  0  0  0
   16.1835  -14.4660   19.9587 O   0  0  0  0  0  0  0  0  0  0  0  0
   16.0086  -12.2606   19.4137 N   0  0  0  0  0  0  0  0  0  0  0  0
   16.4062  -11.3322   19.4054 H   0  0  0  0  0  0  0  0  0  0  0  0
   14.6724  -12.5711   18.8617 C   0  0  0  0  0  0  0  0  0  0  0  0
   14.6064  -13.6268   18.5988 H   0  0  0  0  0  0  0  0  0  0  0  0
   14.4763  -11.9637   17.9781 H   0  0  0  0  0  0  0  0  0  0  0  0
   13.6679  -12.2329   19.9784 C   0  0  0  0  0  0  0  0  0  0  0  0
   13.1995  -13.2431   20.8096 C   0  0  0  0  0  0  0  0  0  0  0  0
   13.5441  -14.2563   20.6643 H   0  0  0  0  0  0  0  0  0  0  0  0
   12.2911  -12.9649   21.8277 C   0  0  0  0  0  0  0  0  0  0  0  0
   11.9406  -13.7630   22.4653 H   0  0  0  0  0  0  0  0  0  0  0  0
   11.8286  -11.6606   22.0317 C   0  0  0  0  0  0  0  0  0  0  0  0
   12.3065  -10.6603   21.1915 C   0  0  0  0  0  0  0  0  0  0  0  0
   11.9632   -9.6463   21.3338 H   0  0  0  0  0  0  0  0  0  0  0  0
   13.2183  -10.9317   20.1686 C   0  0  0  0  0  0  0  0  0  0  0  0
   13.5714  -10.1356   19.5298 H   0  0  0  0  0  0  0  0  0  0  0  0
   16.9597  -13.7395   22.8393 O   0  0  0  0  0  0  0  0  0  0  0  0
   18.4882  -15.7011   24.4956 C   0  0  0  0  0  0  0  0  0  0  0  0
   18.4091  -16.6538   25.0192 H   0  0  0  0  0  0  0  0  0  0  0  0
   17.8989  -14.9485   25.0195 H   0  0  0  0  0  0  0  0  0  0  0  0
   10.8025  -12.0139   24.3226 N   0  0  0  0  0  0  0  0  0  0  0  0
   10.1486  -11.8027   25.0628 H   0  0  0  0  0  0  0  0  0  0  0  0
   11.4734  -12.7598   24.4391 H   0  0  0  0  0  0  0  0  0  0  0  0
    9.9098  -10.3403   23.0402 N   0  0  0  0  0  0  0  0  0  0  0  0
    9.2538  -10.1250   23.7773 H   0  0  0  0  0  0  0  0  0  0  0  0
    9.8970   -9.8087   22.1815 H   0  0  0  0  0  0  0  0  0  0  0  0
  1  2  1  1
  1  3  1  0
  1  4  1  0
  1 16  1  0
  3 10  1  0
  3 31  1  0
  4  5  1  0
  4  6  1  0
  4  7  1  0
  7  8  1  0
  7  9  1  0
  7 10  1  0
 10 11  1  0
 10 12  1  0
 13 14  1  6
 13 27  1  0
 13 31  1  0
 13 50  1  0
 15 17  2  0
 15 25  1  0
 15 50  1  0
 16 33  2  0
 16 34  1  0
 17 18  1  0
 17 19  1  0
 19 20  1  0
 19 21  2  0
 21 22  1  0
 21 23  1  0
 23 24  1  0
 23 25  2  0
 25 26  1  0
 27 28  1  0
 27 29  1  0
 27 30  1  0
 31 49  2  0
 32 44  1  0
 32 53  1  0
 32 56  2  0
 34 35  1  0
 34 36  1  0
 36 37  1  0
 36 38  1  0
 36 39  1  0
 39 40  2  0
 39 47  1  0
 40 41  1  0
 40 42  1  0
 42 43  1  0
 42 44  2  0
 44 45  1  0
 45 46  1  0
 45 47  2  0
 47 48  1  0
 50 51  1  0
 50 52  1  0
 53 54  1  0
 53 55  1  0
 56 57  1  0
 56 58  1  0
M  CHG  2  27   1  56   1
M  END
> <intraLJ>
29.791    

> <intraEL>
5.157     

> <intraDihe>
17.466    

> <interLJ>
0.000     

> <interEJ>
0.000     

> <gridLJ>
-8.286    

> <gridEL>
0.000     

> <totalE>
44.129    

> <LGFE>
-8.286  

> <LE>
-0.286  

> <SMILES>
NC(=[NH2+])c1ccc(CNC(=O)C2CCCN2C(=O)C([NH3+])Cc2ccccc2)cc1

> <atom.dprop.GFE>
-0.39 0 -0.15 -0.49 0 0 -0.48 0 0 -0.46 0 0 -0.27 0 -0.24 0 -0.27 0 -0.22 0 -0.25 0 -0.22 0 -0.24 0 -2 0 0 0 0 -1.6 0.03 -0.5 0 -0.098 0 0 -0.081 -0.063 0 -0.11 0 -0.063 -0.21 0 -0.061 0 0.44 -0.27 0 0 0 0 0 0 0 0

> <atom.prop.CLASS>
PRPC NCLA GEHC PRPC NCLA NCLA PRPC NCLA NCLA PRPC NCLA NCLA PRPC NCLA BENC NCLA BENC NCLA BENC NCLA BENC NCLA BENC NCLA BENC NCLA MAMN NCLA NCLA NCLA NCLA MAMC GENA GEND NCLA PRPC NCLA NCLA BENC BENC NCLA BENC NCLA BENC BENC NCLA BENC NCLA GENA PRPC NCLA NCLA NCLA NCLA NCLA NCLA NCLA NCLA

$$$$
thrombin_baum_15_5_2zff
     RDKit          3D

 52 54  0  0  0  0  0  0  0  0999 V2000
   16.8407  -17.3244   22.8992 N   0  0  0  0  0  0  0  0  0  0  0  0
   16.2911  -17.3856   22.0540 H   0  0  0  0  0  0  0  0  0  0  0  0
   16.2965  -16.8773   23.6231 H   0  0  0  0  0  0  0  0  0  0  0  0
   17.1017  -18.2528   23.1991 H   0  0  0  0  0  0  0  0  0  0  0  0
   18.0638  -16.5275   22.6369 C   0  0  1  0  0  0  0  0  0  0  0  0
   18.6565  -16.9996   21.8534 H   0  0  0  0  0  0  0  0  0  0  0  0
   17.7039  -15.1381   22.1572 C   0  0  0  0  0  0  0  0  0  0  0  0
   16.9104  -14.4693   22.8454 O   0  0  0  0  0  0  0  0  0  0  0  0
   18.8746  -16.4561   23.9451 C   0  0  0  0  0  0  0  0  0  0  0  0
   19.0344  -17.4745   24.2993 H   0  0  0  0  0  0  0  0  0  0  0  0
   18.2854  -15.9047   24.6779 H   0  0  0  0  0  0  0  0  0  0  0  0
   20.2387  -15.7765   23.8262 C   0  0  0  0  0  0  0  0  0  0  0  0
   20.3920  -14.3823   23.9716 C   0  0  0  0  0  0  0  0  0  0  0  0
   19.5237  -13.7725   24.1734 H   0  0  0  0  0  0  0  0  0  0  0  0
   21.3779  -16.5497   23.5664 C   0  0  0  0  0  0  0  0  0  0  0  0
   21.2855  -17.6196   23.4516 H   0  0  0  0  0  0  0  0  0  0  0  0
   21.6469  -13.7732   23.8595 C   0  0  0  0  0  0  0  0  0  0  0  0
   21.7480  -12.7039   23.9720 H   0  0  0  0  0  0  0  0  0  0  0  0
   22.6209  -15.9512   23.4560 C   0  0  0  0  0  0  0  0  0  0  0  0
   23.4894  -16.5612   23.2559 H   0  0  0  0  0  0  0  0  0  0  0  0
   22.7685  -14.5672   23.6000 C   0  0  0  0  0  0  0  0  0  0  0  0
   23.7447  -14.1140   23.5111 H   0  0  0  0  0  0  0  0  0  0  0  0
   18.2509  -14.6528   21.0215 N   0  0  0  0  0  0  0  0  0  0  0  0
   17.6501  -13.4766   20.3887 C   0  0  2  0  0  0  0  0  0  0  0  0
   17.7113  -12.5576   20.9715 H   0  0  0  0  0  0  0  0  0  0  0  0
   16.1965  -13.7824   20.0708 C   0  0  0  0  0  0  0  0  0  0  0  0
   15.9419  -14.9754   19.9049 O   0  0  0  0  0  0  0  0  0  0  0  0
   18.3950  -13.5210   19.0202 C   0  0  0  0  0  0  0  0  0  0  0  0
   18.4526  -12.5318   18.5661 H   0  0  0  0  0  0  0  0  0  0  0  0
   17.9140  -14.2114   18.3274 H   0  0  0  0  0  0  0  0  0  0  0  0
   19.7859  -14.0272   19.4437 C   0  0  0  0  0  0  0  0  0  0  0  0
   20.3383  -13.2536   19.9772 H   0  0  0  0  0  0  0  0  0  0  0  0
   20.3630  -14.3550   18.5791 H   0  0  0  0  0  0  0  0  0  0  0  0
   19.4563  -15.2196   20.3772 C   0  0  0  0  0  0  0  0  0  0  0  0
   19.2367  -16.1307   19.8207 H   0  0  0  0  0  0  0  0  0  0  0  0
   20.2538  -15.4150   21.0940 H   0  0  0  0  0  0  0  0  0  0  0  0
   15.3791  -12.7276   19.9881 N   0  0  0  0  0  0  0  0  0  0  0  0
   15.6851  -11.7939   20.2221 H   0  0  0  0  0  0  0  0  0  0  0  0
   14.0110  -13.0073   19.5371 C   0  0  0  0  0  0  0  0  0  0  0  0
   13.7332  -14.0226   19.8202 H   0  0  0  0  0  0  0  0  0  0  0  0
   13.9551  -12.9042   18.4534 H   0  0  0  0  0  0  0  0  0  0  0  0
   13.0524  -12.0079   20.1992 C   0  0  0  0  0  0  0  0  0  0  0  0
   12.4945  -12.3223   21.4398 C   0  0  0  0  0  0  0  0  0  0  0  0
   12.7373  -13.2567   21.9239 H   0  0  0  0  0  0  0  0  0  0  0  0
   11.6256  -11.4260   22.0470 C   0  0  0  0  0  0  0  0  0  0  0  0
   11.1936  -11.6709   23.0060 H   0  0  0  0  0  0  0  0  0  0  0  0
   11.3020  -10.2137   21.4369 C   0  0  0  0  0  0  0  0  0  0  0  0
   10.6267   -9.5216   21.9178 H   0  0  0  0  0  0  0  0  0  0  0  0
   11.8666   -9.9069   20.1898 C   0  0  0  0  0  0  0  0  0  0  0  0
   11.6266   -8.9741   19.7012 H   0  0  0  0  0  0  0  0  0  0  0  0
   12.7396  -10.8112   19.5823 C   0  0  0  0  0  0  0  0  0  0  0  0
   13.1741  -10.5738   18.6225 H   0  0  0  0  0  0  0  0  0  0  0  0
  1  2  1  0
  1  3  1  0
  1  4  1  0
  1  5  1  0
  5  6  1  6
  5  7  1  0
  5  9  1  0
  7  8  2  0
  7 23  1  0
  9 10  1  0
  9 11  1  0
  9 12  1  0
 12 13  2  0
 12 15  1  0
 13 14  1  0
 13 17  1  0
 15 16  1  0
 15 19  2  0
 17 18  1  0
 17 21  2  0
 19 20  1  0
 19 21  1  0
 21 22  1  0
 23 24  1  0
 23 34  1  0
 24 25  1  1
 24 26  1  0
 24 28  1  0
 26 27  2  0
 26 37  1  0
 28 29  1  0
 28 30  1  0
 28 31  1  0
 31 32  1  0
 31 33  1  0
 31 34  1  0
 34 35  1  0
 34 36  1  0
 37 38  1  0
 37 39  1  0
 39 40  1  0
 39 41  1  0
 39 42  1  0
 42 43  2  0
 42 51  1  0
 43 44  1  0
 43 45  1  0
 45 46  1  0
 45 47  2  0
 47 48  1  0
 47 49  1  0
 49 50  1  0
 49 51  2  0
 51 52  1  0
M  CHG  1   1   1
M  END
> <intraLJ>
27.826    

> <intraEL>
4.619     

> <intraDihe>
14.569    

> <interLJ>
0.000     

> <interEJ>
0.000     

> <gridLJ>
-6.550    

> <gridEL>
0.000     

> <totalE>
40.464    

> <LGFE>
-6.550  

> <LE>
-0.252  

> <SMILES>
[NH3+]C(Cc1ccccc1)C(=O)N1CCCC1C(=O)NCc1ccccc1

> <atom.dprop.GFE>
-2 0 0 0 -0.13 0 0 -0.2 -0.33 0 0 -0.21 -0.27 0 -0.16 0 -0.22 0 -0.19 0 -0.23 0 -0.15 -0.3 0 0 0.22 -0.38 0 0 -0.47 0 0 -0.44 0 0 -0.06 0 -0.098 0 0 -0.081 -0.16 0 -0.13 0 -0.24 0 -0.19 0 -0.13 0

> <atom.prop.CLASS>
MAMN NCLA NCLA NCLA PRPC NCLA NCLA GENA PRPC NCLA NCLA BENC BENC NCLA BENC NCLA BENC NCLA BENC NCLA BENC NCLA GEHC PRPC NCLA NCLA GENA PRPC NCLA NCLA PRPC NCLA NCLA PRPC NCLA NCLA GEND NCLA PRPC NCLA NCLA BENC BENC NCLA BENC NCLA BENC NCLA BENC NCLA BENC NCLA

$$$$
thrombin_baum_16_6a
     RDKit          3D

 52 54  0  0  0  0  0  0  0  0999 V2000
   11.2158   -8.7473   21.8930 Cl  0  0  0  0  0  0  0  0  0  0  0  0
   17.9158  -16.2571   23.2431 C   0  0  0  0  0  0  0  0  0  0  0  0
   17.7276  -17.2508   23.6498 H   0  0  0  0  0  0  0  0  0  0  0  0
   17.4473  -15.5084   23.8819 H   0  0  0  0  0  0  0  0  0  0  0  0
   15.8504  -16.5727   21.8624 N   0  0  0  0  0  0  0  0  0  0  0  0
   15.7703  -17.5142   22.2192 H   0  0  0  0  0  0  0  0  0  0  0  0
   15.4729  -16.5342   20.9264 H   0  0  0  0  0  0  0  0  0  0  0  0
   15.3352  -15.9416   22.4594 H   0  0  0  0  0  0  0  0  0  0  0  0
   16.5503  -13.9461   21.7419 O   0  0  0  0  0  0  0  0  0  0  0  0
   17.2909  -16.1703   21.8361 C   0  0  1  0  0  0  0  0  0  0  0  0
   17.8500  -16.8501   21.1932 H   0  0  0  0  0  0  0  0  0  0  0  0
   18.1140  -14.4286   20.2121 N   0  0  0  0  0  0  0  0  0  0  0  0
   16.0925  -13.8046   18.0821 O   0  0  0  0  0  0  0  0  0  0  0  0
   17.3795  -14.7471   21.2939 C   0  0  0  0  0  0  0  0  0  0  0  0
   15.6400  -12.1597   19.5713 N   0  0  0  0  0  0  0  0  0  0  0  0
   15.9340  -11.6285   20.3786 H   0  0  0  0  0  0  0  0  0  0  0  0
   19.1847  -15.2743   19.6517 C   0  0  0  0  0  0  0  0  0  0  0  0
   18.7966  -16.0146   18.9520 H   0  0  0  0  0  0  0  0  0  0  0  0
   19.7587  -15.7763   20.4306 H   0  0  0  0  0  0  0  0  0  0  0  0
   20.0092  -14.1803   18.9389 C   0  0  0  0  0  0  0  0  0  0  0  0
   20.6160  -14.6036   18.1384 H   0  0  0  0  0  0  0  0  0  0  0  0
   20.6528  -13.6516   19.6419 H   0  0  0  0  0  0  0  0  0  0  0  0
   18.9075  -13.2417   18.3715 C   0  0  0  0  0  0  0  0  0  0  0  0
   18.4560  -13.6661   17.4749 H   0  0  0  0  0  0  0  0  0  0  0  0
   19.3133  -12.2563   18.1425 H   0  0  0  0  0  0  0  0  0  0  0  0
   17.8777  -13.1641   19.5303 C   0  0  1  0  0  0  0  0  0  0  0  0
   17.9866  -12.2910   20.1736 H   0  0  0  0  0  0  0  0  0  0  0  0
   16.4650  -13.0741   18.9933 C   0  0  0  0  0  0  0  0  0  0  0  0
   14.2987  -11.9691   18.9788 C   0  0  0  0  0  0  0  0  0  0  0  0
   14.0270  -12.8538   18.4030 H   0  0  0  0  0  0  0  0  0  0  0  0
   14.3118  -11.0987   18.3229 H   0  0  0  0  0  0  0  0  0  0  0  0
   13.2658  -11.7501   20.1029 C   0  0  0  0  0  0  0  0  0  0  0  0
   12.7785  -10.4703   20.4244 C   0  0  0  0  0  0  0  0  0  0  0  0
   13.1252   -9.6044   19.8800 H   0  0  0  0  0  0  0  0  0  0  0  0
   11.8420  -10.3260   21.4536 C   0  0  0  0  0  0  0  0  0  0  0  0
   11.3887  -11.4478   22.1534 C   0  0  0  0  0  0  0  0  0  0  0  0
   10.6519  -11.3383   22.9354 H   0  0  0  0  0  0  0  0  0  0  0  0
   11.8923  -12.7092   21.8370 C   0  0  0  0  0  0  0  0  0  0  0  0
   11.5715  -13.5748   22.3975 H   0  0  0  0  0  0  0  0  0  0  0  0
   12.8060  -12.8525   20.8018 C   0  0  0  0  0  0  0  0  0  0  0  0
   13.3851  -14.4513   20.3740 Cl  0  0  0  0  0  0  0  0  0  0  0  0
   19.4332  -16.0102   23.2226 C   0  0  0  0  0  0  0  0  0  0  0  0
   20.3570  -17.0385   22.9786 C   0  0  0  0  0  0  0  0  0  0  0  0
   20.0135  -18.0443   22.7871 H   0  0  0  0  0  0  0  0  0  0  0  0
   21.7301  -16.7497   22.9855 C   0  0  0  0  0  0  0  0  0  0  0  0
   22.4428  -17.5479   22.8397 H   0  0  0  0  0  0  0  0  0  0  0  0
   22.1850  -15.4527   23.1771 C   0  0  0  0  0  0  0  0  0  0  0  0
   23.2378  -15.2311   23.0818 H   0  0  0  0  0  0  0  0  0  0  0  0
   21.2748  -14.4234   23.4960 C   0  0  0  0  0  0  0  0  0  0  0  0
   21.6236  -13.4414   23.7793 H   0  0  0  0  0  0  0  0  0  0  0  0
   19.9107  -14.7110   23.4348 C   0  0  0  0  0  0  0  0  0  0  0  0
   19.2007  -13.9060   23.5548 H   0  0  0  0  0  0  0  0  0  0  0  0
  1 35  1  0
  2  3  1  0
  2  4  1  0
  2 10  1  0
  2 42  1  0
  5  6  1  0
  5  7  1  0
  5  8  1  0
  5 10  1  0
  9 14  2  0
 10 11  1  6
 10 14  1  0
 12 14  1  0
 12 17  1  0
 12 26  1  0
 13 28  2  0
 15 16  1  0
 15 28  1  0
 15 29  1  0
 17 18  1  0
 17 19  1  0
 17 20  1  0
 20 21  1  0
 20 22  1  0
 20 23  1  0
 23 24  1  0
 23 25  1  0
 23 26  1  0
 26 27  1  1
 26 28  1  0
 29 30  1  0
 29 31  1  0
 29 32  1  0
 32 33  2  0
 32 40  1  0
 33 34  1  0
 33 35  1  0
 35 36  2  0
 36 37  1  0
 36 38  1  0
 38 39  1  0
 38 40  2  0
 40 41  1  0
 42 43  2  0
 42 51  1  0
 43 44  1  0
 43 45  1  0
 45 46  1  0
 45 47  2  0
 47 48  1  0
 47 49  1  0
 49 50  1  0
 49 51  2  0
 51 52  1  0
M  CHG  1   5   1
M  END
> <intraLJ>
24.118    

> <intraEL>
3.899     

> <intraDihe>
16.803    

> <interLJ>
0.000     

> <interEJ>
0.000     

> <gridLJ>
-7.063    

> <gridEL>
0.000     

> <totalE>
37.757    

> <LGFE>
-7.063  

> <LE>
-0.252  

> <SMILES>
[NH3+]C(Cc1ccccc1)C(=O)N1CCCC1C(=O)NCc1cc(Cl)ccc1Cl

> <atom.dprop.GFE>
-0.57 -0.27 0 0 -2.2 0 0 0 0.16 -0.16 0 -0.18 0.28 0 -0.39 0 -0.36 0 0 -0.43 0 0 -0.38 0 0 -0.35 0 0 -0.001 0 0 -0.081 -0.23 0 -0.24 -0.13 0 -0.11 0 -0.15 -0.17 -0.16 -0.14 0 -0.16 0 -0.23 0 -0.19 0 -0.24 0

> <atom.prop.CLASS>
GENA PRPC NCLA NCLA MAMN NCLA NCLA NCLA GENA PRPC NCLA GEHC GENA NCLA GEND NCLA PRPC NCLA NCLA PRPC NCLA NCLA PRPC NCLA NCLA PRPC NCLA NCLA PRPC NCLA NCLA BENC BENC NCLA BENC BENC NCLA BENC NCLA BENC GENA BENC BENC NCLA BENC NCLA BENC NCLA BENC NCLA BENC NCLA

$$$$
thrombin_baum_17_6b
     RDKit          3D

 55 57  0  0  0  0  0  0  0  0999 V2000
   11.1887  -10.3632   24.6171 Cl  0  0  0  0  0  0  0  0  0  0  0  0
   19.0120  -15.9671   23.7449 C   0  0  0  0  0  0  0  0  0  0  0  0
   19.0903  -16.9925   24.1062 H   0  0  0  0  0  0  0  0  0  0  0  0
   18.5943  -15.3363   24.5295 H   0  0  0  0  0  0  0  0  0  0  0  0
   16.7491  -16.5734   22.8596 N   0  0  0  0  0  0  0  0  0  0  0  0
   16.9000  -17.5258   23.1600 H   0  0  0  0  0  0  0  0  0  0  0  0
   16.1578  -16.5684   22.0407 H   0  0  0  0  0  0  0  0  0  0  0  0
   16.3018  -16.0534   23.6010 H   0  0  0  0  0  0  0  0  0  0  0  0
   17.0896  -13.8270   22.8274 O   0  0  0  0  0  0  0  0  0  0  0  0
   18.0636  -15.9405   22.5293 C   0  0  1  0  0  0  0  0  0  0  0  0
   18.5494  -16.5000   21.7298 H   0  0  0  0  0  0  0  0  0  0  0  0
   18.0898  -14.0730   20.8380 N   0  0  0  0  0  0  0  0  0  0  0  0
   15.4601  -14.2719   19.8386 O   0  0  0  0  0  0  0  0  0  0  0  0
   17.8037  -14.5061   22.0798 C   0  0  0  0  0  0  0  0  0  0  0  0
   15.0602  -12.1630   20.5603 N   0  0  0  0  0  0  0  0  0  0  0  0
   15.4264  -11.3042   20.9458 H   0  0  0  0  0  0  0  0  0  0  0  0
   19.1107  -14.6738   19.9592 C   0  0  0  0  0  0  0  0  0  0  0  0
   18.7142  -15.5116   19.3855 H   0  0  0  0  0  0  0  0  0  0  0  0
   19.9896  -14.9983   20.5162 H   0  0  0  0  0  0  0  0  0  0  0  0
   19.4107  -13.4506   19.0655 C   0  0  0  0  0  0  0  0  0  0  0  0
   19.8331  -13.7567   18.1084 H   0  0  0  0  0  0  0  0  0  0  0  0
   20.0938  -12.7600   19.5599 H   0  0  0  0  0  0  0  0  0  0  0  0
   18.0050  -12.8134   18.8805 C   0  0  0  0  0  0  0  0  0  0  0  0
   17.4183  -13.3668   18.1471 H   0  0  0  0  0  0  0  0  0  0  0  0
   18.0856  -11.7717   18.5700 H   0  0  0  0  0  0  0  0  0  0  0  0
   17.3767  -12.9256   20.2954 C   0  0  1  0  0  0  0  0  0  0  0  0
   17.4672  -12.0248   20.9023 H   0  0  0  0  0  0  0  0  0  0  0  0
   15.8875  -13.1836   20.2071 C   0  0  0  0  0  0  0  0  0  0  0  0
   13.6073  -12.3524   20.3612 C   0  0  0  0  0  0  0  0  0  0  0  0
   13.3005  -13.3000   20.8038 H   0  0  0  0  0  0  0  0  0  0  0  0
   13.3850  -12.3609   19.2942 H   0  0  0  0  0  0  0  0  0  0  0  0
   12.8404  -11.1974   21.0367 C   0  0  0  0  0  0  0  0  0  0  0  0
   12.4010  -11.2778   22.3706 C   0  0  0  0  0  0  0  0  0  0  0  0
   12.5951  -12.1485   22.9403 H   0  0  0  0  0  0  0  0  0  0  0  0
   11.7121  -10.2266   22.9704 C   0  0  0  0  0  0  0  0  0  0  0  0
   11.4464   -9.0683   22.2496 C   0  0  0  0  0  0  0  0  0  0  0  0
   10.9259   -8.2700   22.7115 H   0  0  0  0  0  0  0  0  0  0  0  0
   11.8675   -8.9709   20.9310 C   0  0  0  0  0  0  0  0  0  0  0  0
   11.6606   -8.0830   20.3901 H   0  0  0  0  0  0  0  0  0  0  0  0
   12.5558  -10.0200   20.3150 C   0  0  0  0  0  0  0  0  0  0  0  0
   12.9728   -9.8315   18.8656 C   0  0  0  0  0  0  0  0  0  0  0  0
   12.5444  -10.6412   18.2750 H   0  0  0  0  0  0  0  0  0  0  0  0
   14.0618   -9.8432   18.8138 H   0  0  0  0  0  0  0  0  0  0  0  0
   12.6032   -8.8760   18.4943 H   0  0  0  0  0  0  0  0  0  0  0  0
   20.4197  -15.4565   23.3965 C   0  0  0  0  0  0  0  0  0  0  0  0
   21.3871  -16.2763   22.7947 C   0  0  0  0  0  0  0  0  0  0  0  0
   21.1549  -17.3023   22.5501 H   0  0  0  0  0  0  0  0  0  0  0  0
   22.6581  -15.7528   22.5132 C   0  0  0  0  0  0  0  0  0  0  0  0
   23.4162  -16.3944   22.0889 H   0  0  0  0  0  0  0  0  0  0  0  0
   22.9546  -14.4221   22.7723 C   0  0  0  0  0  0  0  0  0  0  0  0
   23.9029  -14.0103   22.4599 H   0  0  0  0  0  0  0  0  0  0  0  0
   22.0195  -13.6064   23.4430 C   0  0  0  0  0  0  0  0  0  0  0  0
   22.2840  -12.6120   23.7710 H   0  0  0  0  0  0  0  0  0  0  0  0
   20.7428  -14.1217   23.6703 C   0  0  0  0  0  0  0  0  0  0  0  0
   19.9796  -13.4704   24.0702 H   0  0  0  0  0  0  0  0  0  0  0  0
  1 35  1  0
  2  3  1  0
  2  4  1  0
  2 10  1  0
  2 45  1  0
  5  6  1  0
  5  7  1  0
  5  8  1  0
  5 10  1  0
  9 14  2  0
 10 11  1  6
 10 14  1  0
 12 14  1  0
 12 17  1  0
 12 26  1  0
 13 28  2  0
 15 16  1  0
 15 28  1  0
 15 29  1  0
 17 18  1  0
 17 19  1  0
 17 20  1  0
 20 21  1  0
 20 22  1  0
 20 23  1  0
 23 24  1  0
 23 25  1  0
 23 26  1  0
 26 27  1  1
 26 28  1  0
 29 30  1  0
 29 31  1  0
 29 32  1  0
 32 33  2  0
 32 40  1  0
 33 34  1  0
 33 35  1  0
 35 36  2  0
 36 37  1  0
 36 38  1  0
 38 39  1  0
 38 40  2  0
 40 41  1  0
 41 42  1  0
 41 43  1  0
 41 44  1  0
 45 46  2  0
 45 54  1  0
 46 47  1  0
 46 48  1  0
 48 49  1  0
 48 50  2  0
 50 51  1  0
 50 52  1  0
 52 53  1  0
 52 54  2  0
 54 55  1  0
M  CHG  1   5   1
M  END
> <intraLJ>
22.674    

> <intraEL>
3.807     

> <intraDihe>
18.881    

> <interLJ>
0.000     

> <interEJ>
0.000     

> <gridLJ>
-6.746    

> <gridEL>
0.000     

> <totalE>
38.616    

> <LGFE>
-6.746  

> <LE>
-0.241  

> <SMILES>
Cc1ccc(Cl)cc1CNC(=O)C1CCCN1C(=O)C([NH3+])Cc1ccccc1

> <atom.dprop.GFE>
-1.4 -0.32 0 0 -2 0 0 0 0.44 -0.26 0 -0.18 -0.14 0 -0.083 0 -0.44 0 0 -0.49 0 0 -0.35 0 0 -0.24 0 0 -0.16 0 0 -0.21 -0.063 0 -0.13 0.048 0 0.0043 0 -0.19 0.25 0 0 0 -0.24 -0.16 0 -0.053 0 0.0033 0 -0.16 0 -0.22 0

> <atom.prop.CLASS>
GENA PRPC NCLA NCLA MAMN NCLA NCLA NCLA GENA PRPC NCLA GEHC GENA NCLA GEND NCLA PRPC NCLA NCLA PRPC NCLA NCLA PRPC NCLA NCLA PRPC NCLA NCLA PRPC NCLA NCLA BENC BENC NCLA BENC BENC NCLA BENC NCLA BENC PRPC NCLA NCLA NCLA BENC BENC NCLA BENC NCLA BENC NCLA BENC NCLA BENC NCLA

$$$$
thrombin_baum_18_6c
     RDKit          3D

 56 58  0  0  0  0  0  0  0  0999 V2000
   11.3922   -8.6461   22.1360 Cl  0  0  0  0  0  0  0  0  0  0  0  0
   18.5952  -15.9806   23.9818 C   0  0  0  0  0  0  0  0  0  0  0  0
   18.5495  -16.9779   24.4193 H   0  0  0  0  0  0  0  0  0  0  0  0
   18.1792  -15.2569   24.6827 H   0  0  0  0  0  0  0  0  0  0  0  0
   16.3676  -16.4764   22.9503 N   0  0  0  0  0  0  0  0  0  0  0  0
   16.4192  -17.4152   23.3192 H   0  0  0  0  0  0  0  0  0  0  0  0
   15.8442  -16.4825   22.0865 H   0  0  0  0  0  0  0  0  0  0  0  0
   15.9061  -15.8768   23.6194 H   0  0  0  0  0  0  0  0  0  0  0  0
   16.8891  -13.7835   22.7551 O   0  0  0  0  0  0  0  0  0  0  0  0
   17.7495  -15.9653   22.6925 C   0  0  1  0  0  0  0  0  0  0  0  0
   18.2507  -16.6109   21.9712 H   0  0  0  0  0  0  0  0  0  0  0  0
   18.0961  -14.2113   20.9170 N   0  0  0  0  0  0  0  0  0  0  0  0
   15.5487  -14.4278   19.9594 O   0  0  0  0  0  0  0  0  0  0  0  0
   17.6391  -14.5487   22.1371 C   0  0  0  0  0  0  0  0  0  0  0  0
   15.2705  -12.1929   19.7221 N   0  0  0  0  0  0  0  0  0  0  0  0
   15.6618  -11.2657   19.8082 H   0  0  0  0  0  0  0  0  0  0  0  0
   19.1948  -14.9027   20.2168 C   0  0  0  0  0  0  0  0  0  0  0  0
   18.8407  -15.7653   19.6522 H   0  0  0  0  0  0  0  0  0  0  0  0
   19.9831  -15.2153   20.9016 H   0  0  0  0  0  0  0  0  0  0  0  0
   19.6531  -13.7539   19.2920 C   0  0  0  0  0  0  0  0  0  0  0  0
   20.1801  -14.1382   18.4186 H   0  0  0  0  0  0  0  0  0  0  0  0
   20.2955  -13.0525   19.8244 H   0  0  0  0  0  0  0  0  0  0  0  0
   18.3082  -13.0875   18.8878 C   0  0  0  0  0  0  0  0  0  0  0  0
   17.7969  -13.6715   18.1225 H   0  0  0  0  0  0  0  0  0  0  0  0
   18.4685  -12.0727   18.5238 H   0  0  0  0  0  0  0  0  0  0  0  0
   17.5030  -13.0824   20.2147 C   0  0  1  0  0  0  0  0  0  0  0  0
   17.5520  -12.1451   20.7690 H   0  0  0  0  0  0  0  0  0  0  0  0
   16.0276  -13.2993   19.9531 C   0  0  0  0  0  0  0  0  0  0  0  0
   13.8558  -12.3925   19.3408 C   0  0  0  0  0  0  0  0  0  0  0  0
   13.6903  -13.4416   19.0957 H   0  0  0  0  0  0  0  0  0  0  0  0
   13.6231  -11.7755   18.4730 H   0  0  0  0  0  0  0  0  0  0  0  0
   12.9438  -11.9895   20.5174 C   0  0  0  0  0  0  0  0  0  0  0  0
   12.6127  -10.6467   20.7740 C   0  0  0  0  0  0  0  0  0  0  0  0
   12.9950   -9.8757   20.1576 H   0  0  0  0  0  0  0  0  0  0  0  0
   11.7791  -10.3073   21.8405 C   0  0  0  0  0  0  0  0  0  0  0  0
   11.2561  -11.3002   22.6675 C   0  0  0  0  0  0  0  0  0  0  0  0
   10.6255  -11.0296   23.4744 H   0  0  0  0  0  0  0  0  0  0  0  0
   11.5648  -12.6332   22.4262 C   0  0  0  0  0  0  0  0  0  0  0  0
   11.1658  -13.3836   23.0559 H   0  0  0  0  0  0  0  0  0  0  0  0
   12.3996  -12.9727   21.3570 C   0  0  0  0  0  0  0  0  0  0  0  0
   12.6957  -14.3014   21.1068 O   0  0  0  0  0  0  0  0  0  0  0  0
   12.1126  -15.4354   21.7875 C   0  0  0  0  0  0  0  0  0  0  0  0
   12.4373  -16.3370   21.2677 H   0  0  0  0  0  0  0  0  0  0  0  0
   11.0271  -15.3411   21.7428 H   0  0  0  0  0  0  0  0  0  0  0  0
   12.4669  -15.4409   22.8181 H   0  0  0  0  0  0  0  0  0  0  0  0
   20.0670  -15.6235   23.7172 C   0  0  0  0  0  0  0  0  0  0  0  0
   20.9767  -16.5452   23.1759 C   0  0  0  0  0  0  0  0  0  0  0  0
   20.6527  -17.5432   22.9200 H   0  0  0  0  0  0  0  0  0  0  0  0
   22.3102  -16.1603   22.9699 C   0  0  0  0  0  0  0  0  0  0  0  0
   23.0203  -16.8814   22.5930 H   0  0  0  0  0  0  0  0  0  0  0  0
   22.7292  -14.8660   23.2436 C   0  0  0  0  0  0  0  0  0  0  0  0
   23.7325  -14.5587   22.9877 H   0  0  0  0  0  0  0  0  0  0  0  0
   21.8471  -13.9512   23.8556 C   0  0  0  0  0  0  0  0  0  0  0  0
   22.1949  -12.9874   24.1968 H   0  0  0  0  0  0  0  0  0  0  0  0
   20.5120  -14.3277   24.0072 C   0  0  0  0  0  0  0  0  0  0  0  0
   19.7993  -13.5967   24.3595 H   0  0  0  0  0  0  0  0  0  0  0  0
  1 35  1  0
  2  3  1  0
  2  4  1  0
  2 10  1  0
  2 46  1  0
  5  6  1  0
  5  7  1  0
  5  8  1  0
  5 10  1  0
  9 14  2  0
 10 11  1  6
 10 14  1  0
 12 14  1  0
 12 17  1  0
 12 26  1  0
 13 28  2  0
 15 16  1  0
 15 28  1  0
 15 29  1  0
 17 18  1  0
 17 19  1  0
 17 20  1  0
 20 21  1  0
 20 22  1  0
 20 23  1  0
 23 24  1  0
 23 25  1  0
 23 26  1  0
 26 27  1  1
 26 28  1  0
 29 30  1  0
 29 31  1  0
 29 32  1  0
 32 33  2  0
 32 40  1  0
 33 34  1  0
 33 35  1  0
 35 36  2  0
 36 37  1  0
 36 38  1  0
 38 39  1  0
 38 40  2  0
 40 41  1  0
 41 42  1  0
 42 43  1  0
 42 44  1  0
 42 45  1  0
 46 47  2  0
 46 55  1  0
 47 48  1  0
 47 49  1  0
 49 50  1  0
 49 51  2  0
 51 52  1  0
 51 53  1  0
 53 54  1  0
 53 55  2  0
 55 56  1  0
M  CHG  1   5   1
M  END
> <intraLJ>
23.937    

> <intraEL>
4.495     

> <intraDihe>
17.135    

> <interLJ>
0.000     

> <interEJ>
0.000     

> <gridLJ>
-7.259    

> <gridEL>
0.000     

> <totalE>
38.307    

> <LGFE>
-7.259  

> <LE>
-0.250  

> <SMILES>
COc1ccc(Cl)cc1CNC(=O)C1CCCN1C(=O)C([NH3+])Cc1ccccc1

> <atom.dprop.GFE>
-0.57 -0.27 0 0 -2 0 0 0 0.44 -0.13 0 -0.15 -0.099 0 -0.39 0 -0.44 0 0 -0.47 0 0 -0.35 0 0 -0.24 0 0 -0.089 0 0 -0.081 -0.23 0 -0.24 -0.13 0 -0.0052 0 -0.11 -0.55 0.13 0 0 0 -0.21 -0.16 0 -0.19 0 -0.23 0 -0.22 0 -0.27 0

> <atom.prop.CLASS>
GENA PRPC NCLA NCLA MAMN NCLA NCLA NCLA GENA PRPC NCLA GEHC GENA NCLA GEND NCLA PRPC NCLA NCLA PRPC NCLA NCLA PRPC NCLA NCLA PRPC NCLA NCLA PRPC NCLA NCLA BENC BENC NCLA BENC BENC NCLA BENC NCLA BENC GENA PRPC NCLA NCLA NCLA BENC BENC NCLA BENC NCLA BENC NCLA BENC NCLA BENC NCLA

$$$$
thrombin_baum_19_6d
     RDKit          3D

 53 55  0  0  0  0  0  0  0  0999 V2000
   10.9508  -14.6337   21.4174 Cl  0  0  0  0  0  0  0  0  0  0  0  0
   17.8930  -16.4430   23.9447 C   0  0  0  0  0  0  0  0  0  0  0  0
   17.6199  -17.4411   24.2875 H   0  0  0  0  0  0  0  0  0  0  0  0
   17.4609  -15.6984   24.6132 H   0  0  0  0  0  0  0  0  0  0  0  0
   15.8595  -16.5504   22.4868 N   0  0  0  0  0  0  0  0  0  0  0  0
   15.7156  -17.5065   22.7786 H   0  0  0  0  0  0  0  0  0  0  0  0
   15.5156  -16.4305   21.5448 H   0  0  0  0  0  0  0  0  0  0  0  0
   15.3610  -15.9300   23.1087 H   0  0  0  0  0  0  0  0  0  0  0  0
   16.7712  -13.9520   22.6313 O   0  0  0  0  0  0  0  0  0  0  0  0
   17.3202  -16.2307   22.5289 C   0  0  1  0  0  0  0  0  0  0  0  0
   17.8614  -16.8992   21.8593 H   0  0  0  0  0  0  0  0  0  0  0  0
   18.2122  -14.4469   20.9891 N   0  0  0  0  0  0  0  0  0  0  0  0
   15.8569  -14.1436   19.6504 O   0  0  0  0  0  0  0  0  0  0  0  0
   17.5056  -14.7833   22.0840 C   0  0  0  0  0  0  0  0  0  0  0  0
   16.0045  -11.8862   19.5473 N   0  0  0  0  0  0  0  0  0  0  0  0
   16.5263  -11.0496   19.7665 H   0  0  0  0  0  0  0  0  0  0  0  0
   19.2877  -15.2698   20.4045 C   0  0  0  0  0  0  0  0  0  0  0  0
   18.9002  -16.0151   19.7098 H   0  0  0  0  0  0  0  0  0  0  0  0
   19.8866  -15.7632   21.1699 H   0  0  0  0  0  0  0  0  0  0  0  0
   20.0766  -14.1575   19.6796 C   0  0  0  0  0  0  0  0  0  0  0  0
   20.6755  -14.5663   18.8658 H   0  0  0  0  0  0  0  0  0  0  0  0
   20.7237  -13.6189   20.3719 H   0  0  0  0  0  0  0  0  0  0  0  0
   18.9460  -13.2386   19.1378 C   0  0  0  0  0  0  0  0  0  0  0  0
   18.4850  -13.6686   18.2486 H   0  0  0  0  0  0  0  0  0  0  0  0
   19.3280  -12.2447   18.9045 H   0  0  0  0  0  0  0  0  0  0  0  0
   17.9380  -13.1849   20.3169 C   0  0  1  0  0  0  0  0  0  0  0  0
   18.0428  -12.3120   20.9612 H   0  0  0  0  0  0  0  0  0  0  0  0
   16.5135  -13.1205   19.8083 C   0  0  0  0  0  0  0  0  0  0  0  0
   14.6621  -11.8097   18.9319 C   0  0  0  0  0  0  0  0  0  0  0  0
   14.5434  -12.6239   18.2170 H   0  0  0  0  0  0  0  0  0  0  0  0
   14.5524  -10.8553   18.4170 H   0  0  0  0  0  0  0  0  0  0  0  0
   13.5852  -11.9282   20.0295 C   0  0  0  0  0  0  0  0  0  0  0  0
   12.8307  -13.1023   20.2056 C   0  0  0  0  0  0  0  0  0  0  0  0
   13.0074  -13.9514   19.5984 H   0  0  0  0  0  0  0  0  0  0  0  0
   11.8507  -13.1712   21.1989 C   0  0  0  0  0  0  0  0  0  0  0  0
   11.5961  -12.0692   22.0171 C   0  0  0  0  0  0  0  0  0  0  0  0
   10.8604  -12.1386   22.7761 H   0  0  0  0  0  0  0  0  0  0  0  0
   12.3011  -10.8873   21.8216 C   0  0  0  0  0  0  0  0  0  0  0  0
   12.1049  -10.0363   22.4218 H   0  0  0  0  0  0  0  0  0  0  0  0
   13.2617  -10.8161   20.8171 C   0  0  0  0  0  0  0  0  0  0  0  0
   13.8446   -9.5971   20.5908 O   0  0  0  0  0  0  0  0  0  0  0  0
   14.2440   -9.5660   19.6954 H   0  0  0  0  0  0  0  0  0  0  0  0
   19.4243  -16.3099   23.9795 C   0  0  0  0  0  0  0  0  0  0  0  0
   20.0655  -15.1396   24.4148 C   0  0  0  0  0  0  0  0  0  0  0  0
   19.4844  -14.2935   24.7504 H   0  0  0  0  0  0  0  0  0  0  0  0
   21.4673  -15.0775   24.4109 C   0  0  0  0  0  0  0  0  0  0  0  0
   21.9606  -14.1631   24.7057 H   0  0  0  0  0  0  0  0  0  0  0  0
   22.2286  -16.1746   24.0334 C   0  0  0  0  0  0  0  0  0  0  0  0
   23.3039  -16.1435   24.1296 H   0  0  0  0  0  0  0  0  0  0  0  0
   21.6005  -17.3305   23.5244 C   0  0  0  0  0  0  0  0  0  0  0  0
   22.1804  -18.1378   23.1022 H   0  0  0  0  0  0  0  0  0  0  0  0
   20.2080  -17.4003   23.5821 C   0  0  0  0  0  0  0  0  0  0  0  0
   19.7191  -18.3246   23.3117 H   0  0  0  0  0  0  0  0  0  0  0  0
  1 35  1  0
  2  3  1  0
  2  4  1  0
  2 10  1  0
  2 43  1  0
  5  6  1  0
  5  7  1  0
  5  8  1  0
  5 10  1  0
  9 14  2  0
 10 11  1  6
 10 14  1  0
 12 14  1  0
 12 17  1  0
 12 26  1  0
 13 28  2  0
 15 16  1  0
 15 28  1  0
 15 29  1  0
 17 18  1  0
 17 19  1  0
 17 20  1  0
 20 21  1  0
 20 22  1  0
 20 23  1  0
 23 24  1  0
 23 25  1  0
 23 26  1  0
 26 27  1  1
 26 28  1  0
 29 30  1  0
 29 31  1  0
 29 32  1  0
 32 33  2  0
 32 40  1  0
 33 34  1  0
 33 35  1  0
 35 36  2  0
 36 37  1  0
 36 38  1  0
 38 39  1  0
 38 40  2  0
 40 41  1  0
 41 42  1  0
 43 44  2  0
 43 52  1  0
 44 45  1  0
 44 46  1  0
 46 47  1  0
 46 48  2  0
 48 49  1  0
 48 50  1  0
 50 51  1  0
 50 52  2  0
 52 53  1  0
M  CHG  1   5   1
M  END
> <intraLJ>
22.592    

> <intraEL>
3.706     

> <intraDihe>
17.819    

> <interLJ>
0.000     

> <interEJ>
0.000     

> <gridLJ>
-7.441    

> <gridEL>
0.000     

> <totalE>
36.676    

> <LGFE>
-7.441  

> <LE>
-0.266  

> <SMILES>
[NH3+]C(Cc1ccccc1)C(=O)N1CCCC1C(=O)NCc1cc(Cl)ccc1O

> <atom.dprop.GFE>
-0.37 -0.27 0 0 -2.2 0 0 0 0.83 -0.13 0 -0.15 -0.14 0 -0.5 0 -0.44 0 0 -0.43 0 0 -0.49 0 0 -0.39 0 0 -0.001 0 0 -0.081 -0.15 0 -0.14 -0.063 0 -0.21 0 -0.061 -0.88 0 -0.17 -0.24 0 -0.26 0 -0.22 0 -0.16 0 -0.14 0

> <atom.prop.CLASS>
GENA PRPC NCLA NCLA MAMN NCLA NCLA NCLA GENA PRPC NCLA GEHC GENA NCLA GEND NCLA PRPC NCLA NCLA PRPC NCLA NCLA PRPC NCLA NCLA PRPC NCLA NCLA PRPC NCLA NCLA BENC BENC NCLA BENC BENC NCLA BENC NCLA BENC MEOO NCLA BENC BENC NCLA BENC NCLA BENC NCLA BENC NCLA BENC NCLA

$$$$
thrombin_baum_20_6e
     RDKit          3D

 52 54  0  0  0  0  0  0  0  0999 V2000
   11.3105   -8.5021   22.0061 Cl  0  0  0  0  0  0  0  0  0  0  0  0
   18.7232  -15.8469   23.9653 C   0  0  0  0  0  0  0  0  0  0  0  0
   18.7774  -16.8568   24.3720 H   0  0  0  0  0  0  0  0  0  0  0  0
   18.2347  -15.1908   24.6856 H   0  0  0  0  0  0  0  0  0  0  0  0
   16.5330  -16.4698   22.9227 N   0  0  0  0  0  0  0  0  0  0  0  0
   16.6385  -17.4052   23.2888 H   0  0  0  0  0  0  0  0  0  0  0  0
   16.0145  -16.5038   22.0566 H   0  0  0  0  0  0  0  0  0  0  0  0
   16.0342  -15.9008   23.5916 H   0  0  0  0  0  0  0  0  0  0  0  0
   16.9424  -13.7303   22.7728 O   0  0  0  0  0  0  0  0  0  0  0  0
   17.8834  -15.8771   22.6724 C   0  0  1  0  0  0  0  0  0  0  0  0
   18.4248  -16.4895   21.9512 H   0  0  0  0  0  0  0  0  0  0  0  0
   18.0774  -14.1165   20.8804 N   0  0  0  0  0  0  0  0  0  0  0  0
   15.4599  -14.3247   20.2210 O   0  0  0  0  0  0  0  0  0  0  0  0
   17.6918  -14.4676   22.1211 C   0  0  0  0  0  0  0  0  0  0  0  0
   15.1985  -12.1414   19.6796 N   0  0  0  0  0  0  0  0  0  0  0  0
   15.6026  -11.2176   19.6214 H   0  0  0  0  0  0  0  0  0  0  0  0
   19.1416  -14.7921   20.1146 C   0  0  0  0  0  0  0  0  0  0  0  0
   18.7644  -15.6535   19.5633 H   0  0  0  0  0  0  0  0  0  0  0  0
   19.9694  -15.1029   20.7521 H   0  0  0  0  0  0  0  0  0  0  0  0
   19.5378  -13.6320   19.1755 C   0  0  0  0  0  0  0  0  0  0  0  0
   20.0189  -14.0044   18.2711 H   0  0  0  0  0  0  0  0  0  0  0  0
   20.2026  -12.9289   19.6774 H   0  0  0  0  0  0  0  0  0  0  0  0
   18.1667  -12.9748   18.8520 C   0  0  0  0  0  0  0  0  0  0  0  0
   17.6190  -13.5575   18.1113 H   0  0  0  0  0  0  0  0  0  0  0  0
   18.2977  -11.9557   18.4882 H   0  0  0  0  0  0  0  0  0  0  0  0
   17.4364  -12.9875   20.2215 C   0  0  1  0  0  0  0  0  0  0  0  0
   17.5079  -12.0543   20.7801 H   0  0  0  0  0  0  0  0  0  0  0  0
   15.9508  -13.2160   20.0402 C   0  0  0  0  0  0  0  0  0  0  0  0
   13.7697  -12.3705   19.3755 C   0  0  0  0  0  0  0  0  0  0  0  0
   13.6015  -13.4331   19.2003 H   0  0  0  0  0  0  0  0  0  0  0  0
   13.4931  -11.8072   18.4843 H   0  0  0  0  0  0  0  0  0  0  0  0
   12.9086  -11.9034   20.5666 C   0  0  0  0  0  0  0  0  0  0  0  0
   12.5348  -10.5571   20.7297 C   0  0  0  0  0  0  0  0  0  0  0  0
   12.8346   -9.8270   20.0235 H   0  0  0  0  0  0  0  0  0  0  0  0
   11.7602  -10.1641   21.8259 C   0  0  0  0  0  0  0  0  0  0  0  0
   11.3459  -11.1018   22.7756 C   0  0  0  0  0  0  0  0  0  0  0  0
   10.7568  -10.7888   23.5989 H   0  0  0  0  0  0  0  0  0  0  0  0
   11.7106  -12.4362   22.6305 C   0  0  0  0  0  0  0  0  0  0  0  0
   11.4057  -13.1619   23.3396 H   0  0  0  0  0  0  0  0  0  0  0  0
   12.4835  -12.8135   21.5373 C   0  0  0  0  0  0  0  0  0  0  0  0
   12.8197  -14.1166   21.4392 F   0  0  0  0  0  0  0  0  0  0  0  0
   20.1522  -15.3353   23.7198 C   0  0  0  0  0  0  0  0  0  0  0  0
   20.5330  -14.0129   23.9960 C   0  0  0  0  0  0  0  0  0  0  0  0
   19.8173  -13.3146   24.4042 H   0  0  0  0  0  0  0  0  0  0  0  0
   21.8505  -13.6050   23.7379 C   0  0  0  0  0  0  0  0  0  0  0  0
   22.1331  -12.5771   23.9106 H   0  0  0  0  0  0  0  0  0  0  0  0
   22.7954  -14.5041   23.2640 C   0  0  0  0  0  0  0  0  0  0  0  0
   23.8268  -14.1996   23.1640 H   0  0  0  0  0  0  0  0  0  0  0  0
   22.4110  -15.8149   22.9125 C   0  0  0  0  0  0  0  0  0  0  0  0
   23.1011  -16.4827   22.4182 H   0  0  0  0  0  0  0  0  0  0  0  0
   21.1133  -16.2239   23.2220 C   0  0  0  0  0  0  0  0  0  0  0  0
   20.8414  -17.2585   23.0729 H   0  0  0  0  0  0  0  0  0  0  0  0
  1 35  1  0
  2  3  1  0
  2  4  1  0
  2 10  1  0
  2 42  1  0
  5  6  1  0
  5  7  1  0
  5  8  1  0
  5 10  1  0
  9 14  2  0
 10 11  1  6
 10 14  1  0
 12 14  1  0
 12 17  1  0
 12 26  1  0
 13 28  2  0
 15 16  1  0
 15 28  1  0
 15 29  1  0
 17 18  1  0
 17 19  1  0
 17 20  1  0
 20 21  1  0
 20 22  1  0
 20 23  1  0
 23 24  1  0
 23 25  1  0
 23 26  1  0
 26 27  1  1
 26 28  1  0
 29 30  1  0
 29 31  1  0
 29 32  1  0
 32 33  2  0
 32 40  1  0
 33 34  1  0
 33 35  1  0
 35 36  2  0
 36 37  1  0
 36 38  1  0
 38 39  1  0
 38 40  2  0
 40 41  1  0
 42 43  2  0
 42 51  1  0
 43 44  1  0
 43 45  1  0
 45 46  1  0
 45 47  2  0
 47 48  1  0
 47 49  1  0
 49 50  1  0
 49 51  2  0
 51 52  1  0
M  CHG  1   5   1
M  END
> <intraLJ>
22.616    

> <intraEL>
3.963     

> <intraDihe>
16.377    

> <interLJ>
0.000     

> <interEJ>
0.000     

> <gridLJ>
-7.639    

> <gridEL>
0.000     

> <totalE>
35.317    

> <LGFE>
-7.639  

> <LE>
-0.273  

> <SMILES>
[NH3+]C(Cc1ccccc1)C(=O)N1CCCC1C(=O)NCc1cc(Cl)ccc1F

> <atom.dprop.GFE>
-0.57 -0.27 0 0 -2 0 0 0 0.44 -0.26 0 -0.15 -0.099 0 -0.39 0 -0.44 0 0 -0.47 0 0 -0.35 0 0 -0.24 0 0 -0.089 0 0 -0.081 -0.23 0 -0.24 -0.13 0 -0.063 0 -0.11 -0.55 -0.24 -0.27 0 -0.19 0 -0.23 0 -0.19 0 -0.23 0

> <atom.prop.CLASS>
GENA PRPC NCLA NCLA MAMN NCLA NCLA NCLA GENA PRPC NCLA GEHC GENA NCLA GEND NCLA PRPC NCLA NCLA PRPC NCLA NCLA PRPC NCLA NCLA PRPC NCLA NCLA PRPC NCLA NCLA BENC BENC NCLA BENC BENC NCLA BENC NCLA BENC GENA BENC BENC NCLA BENC NCLA BENC NCLA BENC NCLA BENC NCLA

$$$$
thrombin_baum_21_7a
     RDKit          3D

 58 60  0  0  0  0  0  0  0  0999 V2000
   11.3995   -8.7779   20.1998 C   0  0  0  0  0  0  0  0  0  0  0  0
   10.5311   -8.4873   20.7911 H   0  0  0  0  0  0  0  0  0  0  0  0
   11.1585   -8.7445   19.1372 H   0  0  0  0  0  0  0  0  0  0  0  0
   12.2430   -8.1247   20.4235 H   0  0  0  0  0  0  0  0  0  0  0  0
   18.4549  -16.3783   24.4672 C   0  0  0  0  0  0  0  0  0  0  0  0
   18.4568  -17.3925   24.8665 H   0  0  0  0  0  0  0  0  0  0  0  0
   17.7751  -15.7588   25.0522 H   0  0  0  0  0  0  0  0  0  0  0  0
   16.6778  -17.1883   22.8994 N   0  0  0  0  0  0  0  0  0  0  0  0
   16.8183  -18.1271   23.2444 H   0  0  0  0  0  0  0  0  0  0  0  0
   16.3883  -17.2248   21.9325 H   0  0  0  0  0  0  0  0  0  0  0  0
   15.9630  -16.7317   23.4478 H   0  0  0  0  0  0  0  0  0  0  0  0
   16.6527  -14.4781   22.8308 O   0  0  0  0  0  0  0  0  0  0  0  0
   17.9568  -16.4203   23.0085 C   0  0  1  0  0  0  0  0  0  0  0  0
   18.7307  -16.9111   22.4183 H   0  0  0  0  0  0  0  0  0  0  0  0
   18.4487  -14.4693   21.4919 N   0  0  0  0  0  0  0  0  0  0  0  0
   16.4602  -14.6026   19.4772 O   0  0  0  0  0  0  0  0  0  0  0  0
   17.7134  -15.0097   22.4812 C   0  0  0  0  0  0  0  0  0  0  0  0
   15.6756  -12.6069   20.2053 N   0  0  0  0  0  0  0  0  0  0  0  0
   15.8068  -11.7965   20.7937 H   0  0  0  0  0  0  0  0  0  0  0  0
   19.7616  -14.9791   21.0538 C   0  0  0  0  0  0  0  0  0  0  0  0
   19.6653  -15.7711   20.3110 H   0  0  0  0  0  0  0  0  0  0  0  0
   20.3610  -15.3370   21.8909 H   0  0  0  0  0  0  0  0  0  0  0  0
   20.3344  -13.6807   20.4447 C   0  0  0  0  0  0  0  0  0  0  0  0
   21.1161  -13.8988   19.7170 H   0  0  0  0  0  0  0  0  0  0  0  0
   20.7318  -13.0247   21.2191 H   0  0  0  0  0  0  0  0  0  0  0  0
   19.0897  -13.0503   19.7594 C   0  0  0  0  0  0  0  0  0  0  0  0
   18.8692  -13.5480   18.8151 H   0  0  0  0  0  0  0  0  0  0  0  0
   19.2383  -11.9850   19.5827 H   0  0  0  0  0  0  0  0  0  0  0  0
   17.9571  -13.2904   20.7932 C   0  0  1  0  0  0  0  0  0  0  0  0
   17.7568  -12.4429   21.4486 H   0  0  0  0  0  0  0  0  0  0  0  0
   16.6393  -13.5612   20.0987 C   0  0  0  0  0  0  0  0  0  0  0  0
   14.4299  -12.7952   19.4313 C   0  0  0  0  0  0  0  0  0  0  0  0
   14.2267  -13.8607   19.3236 H   0  0  0  0  0  0  0  0  0  0  0  0
   14.5436  -12.3456   18.4450 H   0  0  0  0  0  0  0  0  0  0  0  0
   13.2571  -12.1206   20.1715 C   0  0  0  0  0  0  0  0  0  0  0  0
   12.8515  -10.8060   19.8779 C   0  0  0  0  0  0  0  0  0  0  0  0
   13.3622  -10.2657   19.1237 H   0  0  0  0  0  0  0  0  0  0  0  0
   11.7979  -10.1954   20.5493 C   0  0  0  0  0  0  0  0  0  0  0  0
   11.1247  -10.8999   21.5379 C   0  0  0  0  0  0  0  0  0  0  0  0
   10.3184  -10.4516   22.0588 H   0  0  0  0  0  0  0  0  0  0  0  0
   11.5058  -12.1983   21.8481 C   0  0  0  0  0  0  0  0  0  0  0  0
   10.9782  -12.7199   22.6043 H   0  0  0  0  0  0  0  0  0  0  0  0
   12.5645  -12.8152   21.1806 C   0  0  0  0  0  0  0  0  0  0  0  0
   12.9218  -14.2351   21.5873 C   0  0  0  0  0  0  0  0  0  0  0  0
   12.2901  -14.5523   22.4164 H   0  0  0  0  0  0  0  0  0  0  0  0
   13.9663  -14.2515   21.8977 H   0  0  0  0  0  0  0  0  0  0  0  0
   12.7561  -14.8913   20.7330 H   0  0  0  0  0  0  0  0  0  0  0  0
   19.8744  -15.7990   24.5815 C   0  0  0  0  0  0  0  0  0  0  0  0
   20.1119  -14.4573   24.9184 C   0  0  0  0  0  0  0  0  0  0  0  0
   19.2850  -13.7918   25.1178 H   0  0  0  0  0  0  0  0  0  0  0  0
   21.4318  -13.9872   24.9944 C   0  0  0  0  0  0  0  0  0  0  0  0
   21.6142  -12.9452   25.2122 H   0  0  0  0  0  0  0  0  0  0  0  0
   22.5060  -14.8424   24.7935 C   0  0  0  0  0  0  0  0  0  0  0  0
   23.5140  -14.4884   24.9520 H   0  0  0  0  0  0  0  0  0  0  0  0
   22.2837  -16.1733   24.3827 C   0  0  0  0  0  0  0  0  0  0  0  0
   23.1064  -16.8102   24.0929 H   0  0  0  0  0  0  0  0  0  0  0  0
   20.9699  -16.6431   24.3615 C   0  0  0  0  0  0  0  0  0  0  0  0
   20.7923  -17.6910   24.1692 H   0  0  0  0  0  0  0  0  0  0  0  0
  1  2  1  0
  1  3  1  0
  1  4  1  0
  1 38  1  0
  5  6  1  0
  5  7  1  0
  5 13  1  0
  5 48  1  0
  8  9  1  0
  8 10  1  0
  8 11  1  0
  8 13  1  0
 12 17  2  0
 13 14  1  6
 13 17  1  0
 15 17  1  0
 15 20  1  0
 15 29  1  0
 16 31  2  0
 18 19  1  0
 18 31  1  0
 18 32  1  0
 20 21  1  0
 20 22  1  0
 20 23  1  0
 23 24  1  0
 23 25  1  0
 23 26  1  0
 26 27  1  0
 26 28  1  0
 26 29  1  0
 29 30  1  1
 29 31  1  0
 32 33  1  0
 32 34  1  0
 32 35  1  0
 35 36  2  0
 35 43  1  0
 36 37  1  0
 36 38  1  0
 38 39  2  0
 39 40  1  0
 39 41  1  0
 41 42  1  0
 41 43  2  0
 43 44  1  0
 44 45  1  0
 44 46  1  0
 44 47  1  0
 48 49  2  0
 48 57  1  0
 49 50  1  0
 49 51  1  0
 51 52  1  0
 51 53  2  0
 53 54  1  0
 53 55  1  0
 55 56  1  0
 55 57  2  0
 57 58  1  0
M  CHG  1   8   1
M  END
> <intraLJ>
24.579    

> <intraEL>
3.324     

> <intraDihe>
16.800    

> <interLJ>
0.000     

> <interEJ>
0.000     

> <gridLJ>
-6.509    

> <gridEL>
0.000     

> <totalE>
38.194    

> <LGFE>
-6.509  

> <LE>
-0.232  

> <SMILES>
Cc1ccc(C)c(CNC(=O)C2CCCN2C(=O)C([NH3+])Cc2ccccc2)c1

> <atom.dprop.GFE>
-0.25 0 0 0 -0.27 0 0 -2 0 0 0 0.46 -0.27 0 -0.15 0.31 0 -0.06 0 -0.46 0 0 -0.48 0 0 -0.49 0 0 -0.39 0 0 -0.098 0 0 -0.081 -0.23 0 -0.21 -0.23 0 -0.19 0 -0.11 0.033 0 0 0 -0.2 -0.25 0 -0.23 0 -0.25 0 -0.22 0 -0.19 0

> <atom.prop.CLASS>
PRPC NCLA NCLA NCLA PRPC NCLA NCLA MAMN NCLA NCLA NCLA GENA PRPC NCLA GEHC GENA NCLA GEND NCLA PRPC NCLA NCLA PRPC NCLA NCLA PRPC NCLA NCLA PRPC NCLA NCLA PRPC NCLA NCLA BENC BENC NCLA BENC BENC NCLA BENC NCLA BENC PRPC NCLA NCLA NCLA BENC BENC NCLA BENC NCLA BENC NCLA BENC NCLA BENC NCLA

$$$$
thrombin_baum_22_7b
     RDKit          3D

 52 54  0  0  0  0  0  0  0  0999 V2000
   18.4226  -16.0040   24.1793 C   0  0  0  0  0  0  0  0  0  0  0  0
   18.4360  -17.0089   24.6013 H   0  0  0  0  0  0  0  0  0  0  0  0
   17.8841  -15.3351   24.8507 H   0  0  0  0  0  0  0  0  0  0  0  0
   16.2963  -16.5707   22.9837 N   0  0  0  0  0  0  0  0  0  0  0  0
   16.3304  -17.4961   23.3868 H   0  0  0  0  0  0  0  0  0  0  0  0
   15.8470  -16.6134   22.0802 H   0  0  0  0  0  0  0  0  0  0  0  0
   15.7720  -15.9578   23.5917 H   0  0  0  0  0  0  0  0  0  0  0  0
   16.9239  -13.8261   22.8408 O   0  0  0  0  0  0  0  0  0  0  0  0
   17.6875  -16.0445   22.8245 C   0  0  1  0  0  0  0  0  0  0  0  0
   18.2564  -16.7043   22.1693 H   0  0  0  0  0  0  0  0  0  0  0  0
   18.0009  -14.3825   20.9569 N   0  0  0  0  0  0  0  0  0  0  0  0
   15.3673  -14.3926   20.3274 O   0  0  0  0  0  0  0  0  0  0  0  0
   17.6034  -14.6486   22.2149 C   0  0  0  0  0  0  0  0  0  0  0  0
   15.2850  -12.2152   19.7102 N   0  0  0  0  0  0  0  0  0  0  0  0
   15.7654  -11.3320   19.6143 H   0  0  0  0  0  0  0  0  0  0  0  0
   18.9929  -15.1777   20.2092 C   0  0  0  0  0  0  0  0  0  0  0  0
   18.5359  -16.0249   19.6979 H   0  0  0  0  0  0  0  0  0  0  0  0
   19.7996  -15.5325   20.8507 H   0  0  0  0  0  0  0  0  0  0  0  0
   19.4744  -14.0949   19.2189 C   0  0  0  0  0  0  0  0  0  0  0  0
   19.9096  -14.5437   18.3260 H   0  0  0  0  0  0  0  0  0  0  0  0
   20.2036  -13.4319   19.6846 H   0  0  0  0  0  0  0  0  0  0  0  0
   18.1604  -13.3357   18.8821 C   0  0  0  0  0  0  0  0  0  0  0  0
   17.5548  -13.8985   18.1717 H   0  0  0  0  0  0  0  0  0  0  0  0
   18.3732  -12.3472   18.4751 H   0  0  0  0  0  0  0  0  0  0  0  0
   17.4501  -13.2301   20.2582 C   0  0  1  0  0  0  0  0  0  0  0  0
   17.6088  -12.2846   20.7768 H   0  0  0  0  0  0  0  0  0  0  0  0
   15.9481  -13.3369   20.1013 C   0  0  0  0  0  0  0  0  0  0  0  0
   13.8378  -12.3319   19.4300 C   0  0  0  0  0  0  0  0  0  0  0  0
   13.5654  -13.3849   19.3588 H   0  0  0  0  0  0  0  0  0  0  0  0
   13.6088  -11.8330   18.4884 H   0  0  0  0  0  0  0  0  0  0  0  0
   13.0378  -11.6699   20.5703 C   0  0  0  0  0  0  0  0  0  0  0  0
   12.6710  -10.3125   20.5291 C   0  0  0  0  0  0  0  0  0  0  0  0
   12.9384   -9.7181   19.6932 H   0  0  0  0  0  0  0  0  0  0  0  0
   11.9573   -9.7423   21.5778 C   0  0  0  0  0  0  0  0  0  0  0  0
   11.6800   -8.7205   21.5483 H   0  0  0  0  0  0  0  0  0  0  0  0
   11.6020  -10.5201   22.6792 C   0  0  0  0  0  0  0  0  0  0  0  0
   10.7146   -9.8117   23.9886 Cl  0  0  0  0  0  0  0  0  0  0  0  0
   11.9606  -11.8668   22.7299 C   0  0  0  0  0  0  0  0  0  0  0  0
   11.6837  -12.4492   23.5700 H   0  0  0  0  0  0  0  0  0  0  0  0
   12.6767  -12.4348   21.6812 C   0  0  0  0  0  0  0  0  0  0  0  0
   12.9510  -13.4583   21.7286 H   0  0  0  0  0  0  0  0  0  0  0  0
   19.8707  -15.5060   24.0415 C   0  0  0  0  0  0  0  0  0  0  0  0
   20.8972  -16.3168   23.5326 C   0  0  0  0  0  0  0  0  0  0  0  0
   20.6850  -17.3260   23.2119 H   0  0  0  0  0  0  0  0  0  0  0  0
   22.2012  -15.8063   23.4438 C   0  0  0  0  0  0  0  0  0  0  0  0
   22.9995  -16.4430   23.0920 H   0  0  0  0  0  0  0  0  0  0  0  0
   22.4794  -14.4948   23.8018 C   0  0  0  0  0  0  0  0  0  0  0  0
   23.4660  -14.0881   23.6352 H   0  0  0  0  0  0  0  0  0  0  0  0
   21.4758  -13.6918   24.3828 C   0  0  0  0  0  0  0  0  0  0  0  0
   21.7086  -12.7185   24.7890 H   0  0  0  0  0  0  0  0  0  0  0  0
   20.1734  -14.1915   24.4177 C   0  0  0  0  0  0  0  0  0  0  0  0
   19.3734  -13.5440   24.7451 H   0  0  0  0  0  0  0  0  0  0  0  0
  1  2  1  0
  1  3  1  0
  1  9  1  0
  1 42  1  0
  4  5  1  0
  4  6  1  0
  4  7  1  0
  4  9  1  0
  8 13  2  0
  9 10  1  6
  9 13  1  0
 11 13  1  0
 11 16  1  0
 11 25  1  0
 12 27  2  0
 14 15  1  0
 14 27  1  0
 14 28  1  0
 16 17  1  0
 16 18  1  0
 16 19  1  0
 19 20  1  0
 19 21  1  0
 19 22  1  0
 22 23  1  0
 22 24  1  0
 22 25  1  0
 25 26  1  1
 25 27  1  0
 28 29  1  0
 28 30  1  0
 28 31  1  0
 31 32  2  0
 31 40  1  0
 32 33  1  0
 32 34  1  0
 34 35  1  0
 34 36  2  0
 36 37  1  0
 36 38  1  0
 38 39  1  0
 38 40  2  0
 40 41  1  0
 42 43  2  0
 42 51  1  0
 43 44  1  0
 43 45  1  0
 45 46  1  0
 45 47  2  0
 47 48  1  0
 47 49  1  0
 49 50  1  0
 49 51  2  0
 51 52  1  0
M  CHG  1   4   1
M  END
> <intraLJ>
24.318    

> <intraEL>
3.789     

> <intraDihe>
16.359    

> <interLJ>
0.000     

> <interEJ>
0.000     

> <gridLJ>
-7.972    

> <gridEL>
0.000     

> <totalE>
36.493    

> <LGFE>
-7.972  

> <LE>
-0.295  

> <SMILES>
[NH3+]C(Cc1ccccc1)C(=O)N1CCCC1C(=O)NCc1ccc(Cl)cc1

> <atom.dprop.GFE>
-0.27 0 0 -2 0 0 0 0.44 -0.13 0 -0.15 -0.099 0 -0.39 0 -0.44 0 0 -0.47 0 0 -0.35 0 0 -0.24 0 0 -0.089 0 0 -0.081 -0.19 0 -0.19 0 -0.13 -1.7 0.014 0 -0.16 0 -0.2 -0.23 0 -0.19 0 -0.23 0 -0.22 0 -0.27 0

> <atom.prop.CLASS>
PRPC NCLA NCLA MAMN NCLA NCLA NCLA GENA PRPC NCLA GEHC GENA NCLA GEND NCLA PRPC NCLA NCLA PRPC NCLA NCLA PRPC NCLA NCLA PRPC NCLA NCLA PRPC NCLA NCLA BENC BENC NCLA BENC NCLA BENC GENA BENC NCLA BENC NCLA BENC BENC NCLA BENC NCLA BENC NCLA BENC NCLA BENC NCLA

$$$$
thrombin_baum_23_7c
     RDKit          3D

 52 54  0  0  0  0  0  0  0  0999 V2000
   17.9285  -16.3276   24.1904 C   0  0  0  0  0  0  0  0  0  0  0  0
   17.6476  -17.3043   24.5846 H   0  0  0  0  0  0  0  0  0  0  0  0
   17.5611  -15.5474   24.8571 H   0  0  0  0  0  0  0  0  0  0  0  0
   15.8180  -16.4795   22.8506 N   0  0  0  0  0  0  0  0  0  0  0  0
   15.7008  -17.4319   23.1657 H   0  0  0  0  0  0  0  0  0  0  0  0
   15.4208  -16.3790   21.9275 H   0  0  0  0  0  0  0  0  0  0  0  0
   15.3484  -15.8535   23.4892 H   0  0  0  0  0  0  0  0  0  0  0  0
   16.6515  -13.8836   22.8438 O   0  0  0  0  0  0  0  0  0  0  0  0
   17.2753  -16.1450   22.8056 C   0  0  1  0  0  0  0  0  0  0  0  0
   17.7853  -16.8195   22.1178 H   0  0  0  0  0  0  0  0  0  0  0  0
   18.1310  -14.3712   21.2339 N   0  0  0  0  0  0  0  0  0  0  0  0
   15.7651  -14.0524   19.9324 O   0  0  0  0  0  0  0  0  0  0  0  0
   17.4201  -14.7036   22.3273 C   0  0  0  0  0  0  0  0  0  0  0  0
   15.9571  -11.8044   19.7366 N   0  0  0  0  0  0  0  0  0  0  0  0
   16.4953  -10.9700   19.9217 H   0  0  0  0  0  0  0  0  0  0  0  0
   19.2036  -15.1998   20.6521 C   0  0  0  0  0  0  0  0  0  0  0  0
   18.8140  -15.9434   19.9568 H   0  0  0  0  0  0  0  0  0  0  0  0
   19.7983  -15.6959   21.4192 H   0  0  0  0  0  0  0  0  0  0  0  0
   19.9998  -14.0918   19.9287 C   0  0  0  0  0  0  0  0  0  0  0  0
   20.5986  -14.5039   19.1164 H   0  0  0  0  0  0  0  0  0  0  0  0
   20.6480  -13.5562   20.6222 H   0  0  0  0  0  0  0  0  0  0  0  0
   18.8751  -13.1674   19.3838 C   0  0  0  0  0  0  0  0  0  0  0  0
   18.4141  -13.5955   18.4937 H   0  0  0  0  0  0  0  0  0  0  0  0
   19.2627  -12.1756   19.1510 H   0  0  0  0  0  0  0  0  0  0  0  0
   17.8647  -13.1082   20.5606 C   0  0  1  0  0  0  0  0  0  0  0  0
   17.9724  -12.2355   21.2048 H   0  0  0  0  0  0  0  0  0  0  0  0
   16.4417  -13.0367   20.0486 C   0  0  0  0  0  0  0  0  0  0  0  0
   14.6165  -11.7270   19.1175 C   0  0  0  0  0  0  0  0  0  0  0  0
   14.2729  -12.7309   18.8683 H   0  0  0  0  0  0  0  0  0  0  0  0
   14.6696  -11.1255   18.2101 H   0  0  0  0  0  0  0  0  0  0  0  0
   13.6290  -11.0769   20.1079 C   0  0  0  0  0  0  0  0  0  0  0  0
   13.6324   -9.6928   20.3590 C   0  0  0  0  0  0  0  0  0  0  0  0
   14.3223   -9.0661   19.8542 H   0  0  0  0  0  0  0  0  0  0  0  0
   12.7350   -9.1378   21.2650 C   0  0  0  0  0  0  0  0  0  0  0  0
   12.7359   -8.0959   21.4550 H   0  0  0  0  0  0  0  0  0  0  0  0
   11.8245   -9.9577   21.9308 C   0  0  0  0  0  0  0  0  0  0  0  0
   11.2081   -9.5782   22.5546 H   0  0  0  0  0  0  0  0  0  0  0  0
   11.8128  -11.3312   21.6890 C   0  0  0  0  0  0  0  0  0  0  0  0
   11.1156  -11.9446   22.1982 H   0  0  0  0  0  0  0  0  0  0  0  0
   12.7129  -11.8849   20.7842 C   0  0  0  0  0  0  0  0  0  0  0  0
   12.6952  -13.6142   20.4947 Cl  0  0  0  0  0  0  0  0  0  0  0  0
   19.4622  -16.2422   24.1268 C   0  0  0  0  0  0  0  0  0  0  0  0
   20.2571  -17.3238   23.7163 C   0  0  0  0  0  0  0  0  0  0  0  0
   19.7976  -18.2557   23.4216 H   0  0  0  0  0  0  0  0  0  0  0  0
   21.6531  -17.1853   23.6918 C   0  0  0  0  0  0  0  0  0  0  0  0
   22.2673  -18.0299   23.4166 H   0  0  0  0  0  0  0  0  0  0  0  0
   22.2557  -15.9780   24.0163 C   0  0  0  0  0  0  0  0  0  0  0  0
   23.3226  -15.8589   23.8978 H   0  0  0  0  0  0  0  0  0  0  0  0
   21.4770  -14.9061   24.5005 C   0  0  0  0  0  0  0  0  0  0  0  0
   21.9423  -14.0098   24.8831 H   0  0  0  0  0  0  0  0  0  0  0  0
   20.0882  -15.0377   24.4708 C   0  0  0  0  0  0  0  0  0  0  0  0
   19.4765  -14.1835   24.7212 H   0  0  0  0  0  0  0  0  0  0  0  0
  1  2  1  0
  1  3  1  0
  1  9  1  0
  1 42  1  0
  4  5  1  0
  4  6  1  0
  4  7  1  0
  4  9  1  0
  8 13  2  0
  9 10  1  6
  9 13  1  0
 11 13  1  0
 11 16  1  0
 11 25  1  0
 12 27  2  0
 14 15  1  0
 14 27  1  0
 14 28  1  0
 16 17  1  0
 16 18  1  0
 16 19  1  0
 19 20  1  0
 19 21  1  0
 19 22  1  0
 22 23  1  0
 22 24  1  0
 22 25  1  0
 25 26  1  1
 25 27  1  0
 28 29  1  0
 28 30  1  0
 28 31  1  0
 31 32  2  0
 31 40  1  0
 32 33  1  0
 32 34  1  0
 34 35  1  0
 34 36  2  0
 36 37  1  0
 36 38  1  0
 38 39  1  0
 38 40  2  0
 40 41  1  0
 42 43  2  0
 42 51  1  0
 43 44  1  0
 43 45  1  0
 45 46  1  0
 45 47  2  0
 47 48  1  0
 47 49  1  0
 49 50  1  0
 49 51  2  0
 51 52  1  0
M  CHG  1   4   1
M  END
> <intraLJ>
25.875    

> <intraEL>
4.517     

> <intraDihe>
16.176    

> <interLJ>
0.000     

> <interEJ>
0.000     

> <gridLJ>
-6.887    

> <gridEL>
0.000     

> <totalE>
39.681    

> <LGFE>
-6.887  

> <LE>
-0.255  

> <SMILES>
[NH3+]C(Cc1ccccc1)C(=O)N1CCCC1C(=O)NCc1ccccc1Cl

> <atom.dprop.GFE>
-0.27 0 0 -2.4 0 0 0 0.83 -0.13 0 -0.15 -0.099 0 -0.5 0 -0.44 0 0 -0.48 0 0 -0.49 0 0 -0.39 0 0 -0.001 0 0 -0.061 -0.011 0 0.0043 0 -0.16 0 -0.23 0 -0.21 -0.5 -0.17 -0.14 0 -0.16 0 -0.22 0 -0.26 0 -0.24 0

> <atom.prop.CLASS>
PRPC NCLA NCLA MAMN NCLA NCLA NCLA GENA PRPC NCLA GEHC GENA NCLA GEND NCLA PRPC NCLA NCLA PRPC NCLA NCLA PRPC NCLA NCLA PRPC NCLA NCLA PRPC NCLA NCLA BENC BENC NCLA BENC NCLA BENC NCLA BENC NCLA BENC GENA BENC BENC NCLA BENC NCLA BENC NCLA BENC NCLA BENC NCLA

$$$$
thrombin_baum_24_7d_r
     RDKit          3D

 60 62  0  0  0  0  0  0  0  0999 V2000
   17.3511  -15.8884   23.8927 C   0  0  0  0  0  0  0  0  0  0  0  0
   17.0816  -16.8318   24.3676 H   0  0  0  0  0  0  0  0  0  0  0  0
   16.7185  -15.0912   24.2833 H   0  0  0  0  0  0  0  0  0  0  0  0
   15.7315  -16.5068   22.0853 N   0  0  0  0  0  0  0  0  0  0  0  0
   15.5950  -17.4028   22.5308 H   0  0  0  0  0  0  0  0  0  0  0  0
   15.6108  -16.6051   21.0874 H   0  0  0  0  0  0  0  0  0  0  0  0
   15.0556  -15.8467   22.4426 H   0  0  0  0  0  0  0  0  0  0  0  0
   16.3186  -13.8947   21.7479 O   0  0  0  0  0  0  0  0  0  0  0  0
   17.1131  -16.0116   22.3741 C   0  0  1  0  0  0  0  0  0  0  0  0
   17.8451  -16.7222   21.9904 H   0  0  0  0  0  0  0  0  0  0  0  0
   18.3066  -14.4009   20.8477 N   0  0  0  0  0  0  0  0  0  0  0  0
   16.8412  -14.0780   18.3765 O   0  0  0  0  0  0  0  0  0  0  0  0
   17.2889  -14.6596   21.6896 C   0  0  0  0  0  0  0  0  0  0  0  0
   16.3109  -12.0251   19.1721 N   0  0  0  0  0  0  0  0  0  0  0  0
   16.4776  -11.3007   19.8559 H   0  0  0  0  0  0  0  0  0  0  0  0
   19.4860  -15.2690   20.6724 C   0  0  0  0  0  0  0  0  0  0  0  0
   19.3097  -16.0545   19.9375 H   0  0  0  0  0  0  0  0  0  0  0  0
   19.8072  -15.7168   21.6129 H   0  0  0  0  0  0  0  0  0  0  0  0
   20.4901  -14.2128   20.1614 C   0  0  0  0  0  0  0  0  0  0  0  0
   21.2982  -14.6785   19.5971 H   0  0  0  0  0  0  0  0  0  0  0  0
   20.9084  -13.6359   20.9861 H   0  0  0  0  0  0  0  0  0  0  0  0
   19.6065  -13.3214   19.2443 C   0  0  0  0  0  0  0  0  0  0  0  0
   19.4287  -13.8042   18.2835 H   0  0  0  0  0  0  0  0  0  0  0  0
   20.0693  -12.3480   19.0817 H   0  0  0  0  0  0  0  0  0  0  0  0
   18.2873  -13.1829   20.0504 C   0  0  1  0  0  0  0  0  0  0  0  0
   18.2137  -12.2710   20.6429 H   0  0  0  0  0  0  0  0  0  0  0  0
   17.0899  -13.1395   19.1250 C   0  0  0  0  0  0  0  0  0  0  0  0
   15.2124  -11.9094   18.1891 C   0  0  0  0  0  0  0  0  0  0  0  0
   15.2378  -12.7645   17.5137 H   0  0  0  0  0  0  0  0  0  0  0  0
   15.3330  -10.9901   17.6161 H   0  0  0  0  0  0  0  0  0  0  0  0
   13.8600  -11.8796   18.9298 C   0  0  2  0  0  0  0  0  0  0  0  0
   13.1450  -11.6796   18.1279 H   0  0  0  0  0  0  0  0  0  0  0  0
   13.5764  -10.9209   19.9194 C   0  0  0  0  0  0  0  0  0  0  0  0
   13.7864   -9.9295   19.5164 H   0  0  0  0  0  0  0  0  0  0  0  0
   14.2382  -11.0815   20.7716 H   0  0  0  0  0  0  0  0  0  0  0  0
   12.1220  -10.9392   20.4125 C   0  0  2  0  0  0  0  0  0  0  0  0
   11.4593  -10.7145   19.5720 H   0  0  0  0  0  0  0  0  0  0  0  0
   11.9325   -9.9266   21.4565 N   0  0  0  0  0  0  0  0  0  0  0  0
   12.1596   -9.0107   21.0970 H   0  0  0  0  0  0  0  0  0  0  0  0
   12.5263  -10.1383   22.2453 H   0  0  0  0  0  0  0  0  0  0  0  0
   11.7587  -12.3183   20.9628 C   0  0  0  0  0  0  0  0  0  0  0  0
   12.3431  -12.5145   21.8626 H   0  0  0  0  0  0  0  0  0  0  0  0
   10.6997  -12.3327   21.2242 H   0  0  0  0  0  0  0  0  0  0  0  0
   12.0521  -13.4018   19.9177 C   0  0  0  0  0  0  0  0  0  0  0  0
   11.3857  -13.2704   19.0628 H   0  0  0  0  0  0  0  0  0  0  0  0
   11.8723  -14.3865   20.3515 H   0  0  0  0  0  0  0  0  0  0  0  0
   13.5121  -13.2961   19.4512 C   0  0  0  0  0  0  0  0  0  0  0  0
   14.1628  -13.5401   20.2908 H   0  0  0  0  0  0  0  0  0  0  0  0
   13.6856  -14.0304   18.6624 H   0  0  0  0  0  0  0  0  0  0  0  0
   18.8165  -15.5665   24.2283 C   0  0  0  0  0  0  0  0  0  0  0  0
   19.7995  -16.5635   24.3277 C   0  0  0  0  0  0  0  0  0  0  0  0
   19.5433  -17.5989   24.1579 H   0  0  0  0  0  0  0  0  0  0  0  0
   21.1173  -16.2049   24.6494 C   0  0  0  0  0  0  0  0  0  0  0  0
   21.8650  -16.9752   24.7674 H   0  0  0  0  0  0  0  0  0  0  0  0
   21.4733  -14.8743   24.8180 C   0  0  0  0  0  0  0  0  0  0  0  0
   22.5092  -14.6081   24.9678 H   0  0  0  0  0  0  0  0  0  0  0  0
   20.4844  -13.8687   24.7940 C   0  0  0  0  0  0  0  0  0  0  0  0
   20.7229  -12.8485   25.0559 H   0  0  0  0  0  0  0  0  0  0  0  0
   19.1890  -14.2305   24.4222 C   0  0  0  0  0  0  0  0  0  0  0  0
   18.4503  -13.4557   24.2794 H   0  0  0  0  0  0  0  0  0  0  0  0
  1  2  1  0
  1  3  1  0
  1  9  1  0
  1 50  1  0
  4  5  1  0
  4  6  1  0
  4  7  1  0
  4  9  1  0
  8 13  2  0
  9 10  1  6
  9 13  1  0
 11 13  1  0
 11 16  1  0
 11 25  1  0
 12 27  2  0
 14 15  1  0
 14 27  1  0
 14 28  1  0
 16 17  1  0
 16 18  1  0
 16 19  1  0
 19 20  1  0
 19 21  1  0
 19 22  1  0
 22 23  1  0
 22 24  1  0
 22 25  1  0
 25 26  1  1
 25 27  1  0
 28 29  1  0
 28 30  1  0
 28 31  1  0
 31 32  1  6
 31 33  1  0
 31 47  1  0
 33 34  1  0
 33 35  1  0
 33 36  1  0
 36 37  1  6
 36 38  1  0
 36 41  1  0
 38 39  1  0
 38 40  1  0
 41 42  1  0
 41 43  1  0
 41 44  1  0
 44 45  1  0
 44 46  1  0
 44 47  1  0
 47 48  1  0
 47 49  1  0
 50 51  2  0
 50 59  1  0
 51 52  1  0
 51 53  1  0
 53 54  1  0
 53 55  2  0
 55 56  1  0
 55 57  1  0
 57 58  1  0
 57 59  2  0
 59 60  1  0
M  CHG  1   4   1
M  END
> <intraLJ>
14.267    

> <intraEL>
2.078     

> <intraDihe>
20.034    

> <interLJ>
0.000     

> <interEJ>
0.000     

> <gridLJ>
-8.469    

> <gridEL>
0.000     

> <totalE>
27.910    

> <LGFE>
-8.469  

> <LE>
-0.314  

> <SMILES>
NC1CCCC(CNC(=O)C2CCCN2C(=O)C([NH3+])Cc2ccccc2)C1

> <atom.dprop.GFE>
-0.11 0 0 -2.2 0 0 0 0.16 -0.13 0 -0.18 0.28 0 -0.5 0 -0.44 0 0 -0.48 0 0 -0.49 0 0 -0.39 0 0 0.013 0 0 -0.089 0 -0.12 0 0 -0.45 0 -1.4 0 0 -0.39 0 0 -0.29 0 0 -0.095 0 0 -0.14 -0.13 0 -0.24 0 -0.26 0 -0.27 0 -0.16 0

> <atom.prop.CLASS>
PRPC NCLA NCLA MAMN NCLA NCLA NCLA GENA PRPC NCLA GEHC GENA NCLA GEND NCLA PRPC NCLA NCLA PRPC NCLA NCLA PRPC NCLA NCLA PRPC NCLA NCLA PRPC NCLA NCLA PRPC NCLA PRPC NCLA NCLA PRPC NCLA GEND NCLA NCLA PRPC NCLA NCLA PRPC NCLA NCLA PRPC NCLA NCLA BENC BENC NCLA BENC NCLA BENC NCLA BENC NCLA BENC NCLA

$$$$
thrombin_baum_25_7e
     RDKit          3D

 56 58  0  0  0  0  0  0  0  0999 V2000
   18.5260  -13.8899   20.5494 C   0  0  1  0  0  0  0  0  0  0  0  0
   18.3713  -12.9165   21.0149 H   0  0  0  0  0  0  0  0  0  0  0  0
   18.7869  -14.9630   21.4779 N   0  0  0  0  0  0  0  0  0  0  0  0
   19.7626  -14.0049   19.6097 C   0  0  0  0  0  0  0  0  0  0  0  0
   20.0186  -13.0432   19.1651 H   0  0  0  0  0  0  0  0  0  0  0  0
   19.5989  -14.7382   18.8200 H   0  0  0  0  0  0  0  0  0  0  0  0
   20.8468  -14.4766   20.6081 C   0  0  0  0  0  0  0  0  0  0  0  0
   21.1808  -13.6518   21.2376 H   0  0  0  0  0  0  0  0  0  0  0  0
   21.7017  -14.9011   20.0818 H   0  0  0  0  0  0  0  0  0  0  0  0
   20.1235  -15.5589   21.4520 C   0  0  0  0  0  0  0  0  0  0  0  0
   20.1288  -16.5323   20.9616 H   0  0  0  0  0  0  0  0  0  0  0  0
   20.5499  -15.6528   22.4507 H   0  0  0  0  0  0  0  0  0  0  0  0
   17.8971  -16.5955   23.1762 C   0  0  1  0  0  0  0  0  0  0  0  0
   18.7478  -17.1580   22.7915 H   0  0  0  0  0  0  0  0  0  0  0  0
   19.5118  -15.7783   24.9487 C   0  0  0  0  0  0  0  0  0  0  0  0
   17.2982  -14.2408   19.7267 C   0  0  0  0  0  0  0  0  0  0  0  0
   20.6352  -16.6063   25.0364 C   0  0  0  0  0  0  0  0  0  0  0  0
   20.5274  -17.6750   24.9238 H   0  0  0  0  0  0  0  0  0  0  0  0
   21.8939  -16.0545   25.2690 C   0  0  0  0  0  0  0  0  0  0  0  0
   22.7557  -16.7021   25.3341 H   0  0  0  0  0  0  0  0  0  0  0  0
   22.0552  -14.6799   25.4184 C   0  0  0  0  0  0  0  0  0  0  0  0
   23.0334  -14.2586   25.5975 H   0  0  0  0  0  0  0  0  0  0  0  0
   20.9281  -13.8513   25.3328 C   0  0  0  0  0  0  0  0  0  0  0  0
   21.0335  -12.7826   25.4479 H   0  0  0  0  0  0  0  0  0  0  0  0
   19.6767  -14.4042   25.1002 C   0  0  0  0  0  0  0  0  0  0  0  0
   18.8148  -13.7567   25.0356 H   0  0  0  0  0  0  0  0  0  0  0  0
   16.6788  -17.4107   22.9566 N   0  0  0  0  0  0  0  0  0  0  0  0
   15.8726  -16.9119   23.3049 H   0  0  0  0  0  0  0  0  0  0  0  0
   16.7687  -18.2893   23.4465 H   0  0  0  0  0  0  0  0  0  0  0  0
   16.5649  -17.5864   21.9685 H   0  0  0  0  0  0  0  0  0  0  0  0
   17.8478  -15.2985   22.4086 C   0  0  0  0  0  0  0  0  0  0  0  0
   16.8980  -15.3962   19.6693 O   0  0  0  0  0  0  0  0  0  0  0  0
   16.7370  -13.2087   19.0528 N   0  0  0  0  0  0  0  0  0  0  0  0
   17.0761  -12.2594   19.1168 H   0  0  0  0  0  0  0  0  0  0  0  0
   15.5827  -13.5984   18.2149 C   0  0  0  0  0  0  0  0  0  0  0  0
   15.6651  -14.6439   17.9181 H   0  0  0  0  0  0  0  0  0  0  0  0
   15.5308  -12.9711   17.3250 H   0  0  0  0  0  0  0  0  0  0  0  0
   14.3360  -13.3870   19.0932 C   0  0  0  0  0  0  0  0  0  0  0  0
   13.8074  -14.4576   19.8041 C   0  0  0  0  0  0  0  0  0  0  0  0
   14.2758  -15.4281   19.7336 H   0  0  0  0  0  0  0  0  0  0  0  0
   12.6788  -14.2824   20.5984 C   0  0  0  0  0  0  0  0  0  0  0  0
   12.2732  -15.1025   21.1322 H   0  0  0  0  0  0  0  0  0  0  0  0
   12.0794  -13.0303   20.6905 C   0  0  0  0  0  0  0  0  0  0  0  0
   11.2182  -12.9050   21.2962 H   0  0  0  0  0  0  0  0  0  0  0  0
   12.6082  -11.9469   19.9903 C   0  0  0  0  0  0  0  0  0  0  0  0
   11.9616  -10.5822   20.0840 C   0  0  0  0  0  0  0  0  0  0  0  0
   12.4469  -10.0623   21.3282 O   0  0  0  0  0  0  0  0  0  0  0  0
   13.2843  -10.5081   21.5435 H   0  0  0  0  0  0  0  0  0  0  0  0
   10.8853  -10.6862   20.1244 H   0  0  0  0  0  0  0  0  0  0  0  0
   12.2990   -9.9542   19.2696 H   0  0  0  0  0  0  0  0  0  0  0  0
   13.7359  -12.1328   19.1913 C   0  0  0  0  0  0  0  0  0  0  0  0
   14.1357  -11.3120   18.6523 H   0  0  0  0  0  0  0  0  0  0  0  0
   16.9216  -14.5268   22.6393 O   0  0  0  0  0  0  0  0  0  0  0  0
   18.1286  -16.3522   24.6948 C   0  0  0  0  0  0  0  0  0  0  0  0
   18.0322  -17.2989   25.2264 H   0  0  0  0  0  0  0  0  0  0  0  0
   17.3789  -15.6514   25.0620 H   0  0  0  0  0  0  0  0  0  0  0  0
  1  2  1  1
  1  3  1  0
  1  4  1  0
  1 16  1  0
  3 10  1  0
  3 31  1  0
  4  5  1  0
  4  6  1  0
  4  7  1  0
  7  8  1  0
  7  9  1  0
  7 10  1  0
 10 11  1  0
 10 12  1  0
 13 14  1  6
 13 27  1  0
 13 31  1  0
 13 54  1  0
 15 17  2  0
 15 25  1  0
 15 54  1  0
 16 32  2  0
 16 33  1  0
 17 18  1  0
 17 19  1  0
 19 20  1  0
 19 21  2  0
 21 22  1  0
 21 23  1  0
 23 24  1  0
 23 25  2  0
 25 26  1  0
 27 28  1  0
 27 29  1  0
 27 30  1  0
 31 53  2  0
 33 34  1  0
 33 35  1  0
 35 36  1  0
 35 37  1  0
 35 38  1  0
 38 39  2  0
 38 51  1  0
 39 40  1  0
 39 41  1  0
 41 42  1  0
 41 43  2  0
 43 44  1  0
 43 45  1  0
 45 46  1  0
 45 51  2  0
 46 47  1  0
 46 49  1  0
 46 50  1  0
 47 48  1  0
 51 52  1  0
 54 55  1  0
 54 56  1  0
M  CHG  1  27   1
M  END
> <intraLJ>
29.288    

> <intraEL>
5.403     

> <intraDihe>
22.861    

> <interLJ>
0.000     

> <interEJ>
0.000     

> <gridLJ>
-7.173    

> <gridEL>
0.000     

> <totalE>
50.380    

> <LGFE>
-7.173  

> <LE>
-0.256  

> <SMILES>
[NH3+]C(Cc1ccccc1)C(=O)N1CCCC1C(=O)NCc1cccc(CO)c1

> <atom.dprop.GFE>
-0.43 0 -0.15 -0.47 0 0 -0.4 0 0 -0.34 0 0 -0.15 0 -0.16 0 -0.15 0 -0.22 0 -0.21 0 -0.23 0 -0.082 0 -2 0 0 0 0 0.03 -0.048 0 0.076 0 0 -0.049 0.024 0 -0.069 0 -0.15 0 -0.21 -0.45 -0.81 0 0 0 -0.045 0 -0.2 -0.27 0 0

> <atom.prop.CLASS>
PRPC NCLA GEHC PRPC NCLA NCLA PRPC NCLA NCLA PRPC NCLA NCLA PRPC NCLA BENC NCLA BENC NCLA BENC NCLA BENC NCLA BENC NCLA BENC NCLA MAMN NCLA NCLA NCLA NCLA GENA GEND NCLA PRPC NCLA NCLA BENC BENC NCLA BENC NCLA BENC NCLA BENC PRPC MEOO NCLA NCLA NCLA BENC NCLA GENA PRPC NCLA NCLA

$$$$
thrombin_baum_26_7f
     RDKit          3D

 56 58  0  0  0  0  0  0  0  0999 V2000
   18.2662  -12.9991   20.5922 C   0  0  1  0  0  0  0  0  0  0  0  0
   18.3186  -12.0904   21.1918 H   0  0  0  0  0  0  0  0  0  0  0  0
   18.5766  -14.2103   21.3121 N   0  0  0  0  0  0  0  0  0  0  0  0
   19.2748  -13.0917   19.4092 C   0  0  0  0  0  0  0  0  0  0  0  0
   19.5491  -12.1041   19.0384 H   0  0  0  0  0  0  0  0  0  0  0  0
   18.8771  -13.6900   18.5894 H   0  0  0  0  0  0  0  0  0  0  0  0
   20.4704  -13.7932   20.0973 C   0  0  0  0  0  0  0  0  0  0  0  0
   21.0135  -13.0975   20.7370 H   0  0  0  0  0  0  0  0  0  0  0  0
   21.1517  -14.2147   19.3582 H   0  0  0  0  0  0  0  0  0  0  0  0
   19.8045  -14.9137   20.9385 C   0  0  0  0  0  0  0  0  0  0  0  0
   19.6017  -15.8057   20.3458 H   0  0  0  0  0  0  0  0  0  0  0  0
   20.4030  -15.1839   21.8085 H   0  0  0  0  0  0  0  0  0  0  0  0
   17.9260  -15.9432   23.0195 C   0  0  1  0  0  0  0  0  0  0  0  0
   18.6577  -16.5057   22.4396 H   0  0  0  0  0  0  0  0  0  0  0  0
   19.8909  -15.3494   24.5040 C   0  0  0  0  0  0  0  0  0  0  0  0
   16.8697  -13.1206   20.0069 C   0  0  0  0  0  0  0  0  0  0  0  0
   20.1968  -13.9899   24.6206 C   0  0  0  0  0  0  0  0  0  0  0  0
   19.4017  -13.2627   24.6942 H   0  0  0  0  0  0  0  0  0  0  0  0
   21.5264  -13.5719   24.6421 C   0  0  0  0  0  0  0  0  0  0  0  0
   21.7527  -12.5199   24.7336 H   0  0  0  0  0  0  0  0  0  0  0  0
   22.5666  -14.4922   24.5474 C   0  0  0  0  0  0  0  0  0  0  0  0
   23.5946  -14.1618   24.5657 H   0  0  0  0  0  0  0  0  0  0  0  0
   22.2587  -15.8542   24.4280 C   0  0  0  0  0  0  0  0  0  0  0  0
   23.0523  -16.5827   24.3516 H   0  0  0  0  0  0  0  0  0  0  0  0
   20.9337  -16.2667   24.4079 C   0  0  0  0  0  0  0  0  0  0  0  0
   20.7074  -17.3187   24.3160 H   0  0  0  0  0  0  0  0  0  0  0  0
   16.6459  -16.6892   22.9788 N   0  0  0  0  0  0  0  0  0  0  0  0
   15.9476  -16.1889   23.5100 H   0  0  0  0  0  0  0  0  0  0  0  0
   16.7785  -17.6074   23.3779 H   0  0  0  0  0  0  0  0  0  0  0  0
   16.3392  -16.7796   22.0207 H   0  0  0  0  0  0  0  0  0  0  0  0
   17.8038  -14.5872   22.3711 C   0  0  0  0  0  0  0  0  0  0  0  0
   16.3062  -14.2064   19.9639 O   0  0  0  0  0  0  0  0  0  0  0  0
   16.3451  -11.9730   19.5148 N   0  0  0  0  0  0  0  0  0  0  0  0
   16.8212  -11.0836   19.5645 H   0  0  0  0  0  0  0  0  0  0  0  0
   15.0117  -12.1411   18.8980 C   0  0  0  0  0  0  0  0  0  0  0  0
   14.8222  -13.1930   18.6846 H   0  0  0  0  0  0  0  0  0  0  0  0
   14.9454  -11.5654   17.9748 H   0  0  0  0  0  0  0  0  0  0  0  0
   14.0010  -11.6134   19.9326 C   0  0  0  0  0  0  0  0  0  0  0  0
   13.3488  -12.5072   20.7732 C   0  0  0  0  0  0  0  0  0  0  0  0
   13.5566  -13.5639   20.6926 H   0  0  0  0  0  0  0  0  0  0  0  0
   12.4369  -12.0492   21.7184 C   0  0  0  0  0  0  0  0  0  0  0  0
   11.9453  -12.7394   22.3546 H   0  0  0  0  0  0  0  0  0  0  0  0
   12.1709  -10.6868   21.8368 C   0  0  0  0  0  0  0  0  0  0  0  0
   11.1868  -10.1944   22.8756 C   0  0  0  0  0  0  0  0  0  0  0  0
   10.4781  -10.9771   23.1136 H   0  0  0  0  0  0  0  0  0  0  0  0
   10.7156   -9.2807   22.5375 H   0  0  0  0  0  0  0  0  0  0  0  0
   12.0112   -9.9207   24.0163 O   0  0  0  0  0  0  0  0  0  0  0  0
   12.9005   -9.6837   23.7018 H   0  0  0  0  0  0  0  0  0  0  0  0
   12.8305   -9.7884   20.9992 C   0  0  0  0  0  0  0  0  0  0  0  0
   12.6426   -8.7484   21.0805 H   0  0  0  0  0  0  0  0  0  0  0  0
   13.7405  -10.2493   20.0515 C   0  0  0  0  0  0  0  0  0  0  0  0
   14.2356   -9.5561   19.4209 H   0  0  0  0  0  0  0  0  0  0  0  0
   16.9727  -13.8049   22.8227 O   0  0  0  0  0  0  0  0  0  0  0  0
   18.4513  -15.8331   24.4793 C   0  0  0  0  0  0  0  0  0  0  0  0
   18.3963  -16.8133   24.9529 H   0  0  0  0  0  0  0  0  0  0  0  0
   17.8287  -15.1280   25.0300 H   0  0  0  0  0  0  0  0  0  0  0  0
  1  2  1  1
  1  3  1  0
  1  4  1  0
  1 16  1  0
  3 10  1  0
  3 31  1  0
  4  5  1  0
  4  6  1  0
  4  7  1  0
  7  8  1  0
  7  9  1  0
  7 10  1  0
 10 11  1  0
 10 12  1  0
 13 14  1  6
 13 27  1  0
 13 31  1  0
 13 54  1  0
 15 17  2  0
 15 25  1  0
 15 54  1  0
 16 32  2  0
 16 33  1  0
 17 18  1  0
 17 19  1  0
 19 20  1  0
 19 21  2  0
 21 22  1  0
 21 23  1  0
 23 24  1  0
 23 25  2  0
 25 26  1  0
 27 28  1  0
 27 29  1  0
 27 30  1  0
 31 53  2  0
 33 34  1  0
 33 35  1  0
 35 36  1  0
 35 37  1  0
 35 38  1  0
 38 39  2  0
 38 51  1  0
 39 40  1  0
 39 41  1  0
 41 42  1  0
 41 43  2  0
 43 44  1  0
 43 49  1  0
 44 45  1  0
 44 46  1  0
 44 47  1  0
 47 48  1  0
 49 50  1  0
 49 51  2  0
 51 52  1  0
 54 55  1  0
 54 56  1  0
M  CHG  1  27   1
M  END
> <intraLJ>
30.727    

> <intraEL>
5.582     

> <intraDihe>
21.465    

> <interLJ>
0.000     

> <interEJ>
0.000     

> <gridLJ>
-7.869    

> <gridEL>
0.000     

> <totalE>
49.905    

> <LGFE>
-7.869  

> <LE>
-0.281  

> <SMILES>
[NH3+]C(Cc1ccccc1)C(=O)N1CCCC1C(=O)NCc1ccc(CO)cc1

> <atom.dprop.GFE>
-0.39 0 -0.15 -0.49 0 0 -0.48 0 0 -0.46 0 0 -0.27 0 -0.24 0 -0.27 0 -0.22 0 -0.25 0 -0.22 0 -0.24 0 -2 0 0 0 0 0.03 -0.5 0 -0.097 0 0 -0.0065 -0.063 0 -0.16 0 -0.21 -0.26 0 0 -0.88 0 -0.19 0 -0.011 0 0.44 -0.27 0 0

> <atom.prop.CLASS>
PRPC NCLA GEHC PRPC NCLA NCLA PRPC NCLA NCLA PRPC NCLA NCLA PRPC NCLA BENC NCLA BENC NCLA BENC NCLA BENC NCLA BENC NCLA BENC NCLA MAMN NCLA NCLA NCLA NCLA GENA GEND NCLA PRPC NCLA NCLA BENC BENC NCLA BENC NCLA BENC PRPC NCLA NCLA MEOO NCLA BENC NCLA BENC NCLA GENA PRPC NCLA NCLA

$$$$
