@<TRIPOS>MOLECULE
thrombin_baum_18_6c.mol2
56 58 1 0 0 
SMALL
USER_CHARGES


@<TRIPOS>ATOM
  1 CL      12.3585    -7.7883    24.4401 Cl    1 <1>  -0.1770 
  2 C       18.1650   -14.9590    24.7060 C.3   1 <1>  -0.0165 
  3 H       18.2120   -15.9731    25.1029 H     1 <1>   0.0800 
  4 H       17.4867   -14.3615    25.3151 H     1 <1>   0.0800 
  5 N       16.2910   -15.7020    23.2200 N.4   1 <1>  -0.8530 
  6 H       16.3826   -16.6365    23.5920 H     1 <1>   0.4500 
  7 H       15.9691   -15.7503    22.2639 H     1 <1>   0.4500 
  8 H       15.6245   -15.1831    23.7738 H     1 <1>   0.4500 
  9 O       16.4750   -12.9720    23.1170 O.2   1 <1>  -0.5700 
 10 C       17.6190   -15.0150    23.2650 C.3   1 <1>   0.4840 
 11 H       18.3410   -15.5731    22.6688 H     1 <1>   0.0800 
 12 N       18.1320   -13.1740    21.6230 N.am  1 <1>  -0.6602 
 13 O       15.8790   -12.6740    19.9880 O.2   1 <1>  -0.5700 
 14 C       17.4490   -13.6090    22.6980 C.2   1 <1>   0.5690 
 15 N       15.7410   -10.6040    20.8960 N.am  1 <1>  -0.7301 
 16 H       16.1603    -9.8926    21.4776 H     1 <1>   0.3700 
 17 C       19.1960   -13.9380    20.9450 C.3   1 <1>   0.1401 
 18 H       18.7950   -14.6196    20.1948 H     1 <1>   0.0800 
 19 H       19.8116   -14.4958    21.6507 H     1 <1>   0.0800 
 20 C       19.9680   -12.7630    20.3060 C.3   1 <1>  -0.1600 
 21 H       20.5502   -13.0956    19.4466 H     1 <1>   0.0800 
 22 H       20.6288   -12.2862    21.0299 H     1 <1>   0.0800 
 23 C       18.8250   -11.8030    19.8720 C.3   1 <1>  -0.1600 
 24 H       18.3460   -12.1535    18.9578 H     1 <1>   0.0800 
 25 H       19.2007   -10.7911    19.7204 H     1 <1>   0.0800 
 26 C       17.8420   -11.8580    21.0720 C.3   1 <1>   0.2811 
 27 H       17.9592   -11.0457    21.7893 H     1 <1>   0.0800 
 28 C       16.4070   -11.7530    20.6010 C.2   1 <1>   0.5690 
 29 C       14.3830   -10.4310    20.3370 C.3   1 <1>   0.2836 
 30 H       14.1390   -11.2847    19.7048 H     1 <1>   0.0800 
 31 H       14.3483    -9.5176    19.7433 H     1 <1>   0.0800 
 32 C       13.3610   -10.3350    21.4880 C.ar  1 <1>  -0.1435 
 33 C       13.3210    -9.2280    22.3550 C.ar  1 <1>  -0.1500 
 34 H       14.0071    -8.4309    22.2346 H     1 <1>   0.1500 
 35 C       12.3817    -9.1603    23.3848 C.ar  1 <1>   0.1770 
 36 C       11.4619   -10.1919    23.5663 C.ar  1 <1>  -0.1500 
 37 H       10.7547   -10.1292    24.3524 H     1 <1>   0.1500 
 38 C       11.4797   -11.2905    22.7158 C.ar  1 <1>  -0.1500 
 39 H       10.7800   -12.0711    22.8567 H     1 <1>   0.1500 
 40 C       12.4207   -11.3574    21.6836 C.ar  1 <1>   0.0825 
 41 O       12.4297   -12.4443    20.8266 O.3   1 <1>  -0.3625 
 42 C3      11.3443   -13.3817    20.6461 C.3   1 <1>   0.0400 
 43 H31     11.6001   -14.0273    19.8057 H     1 <1>   0.0800 
 44 H32     10.4366   -12.8176    20.4294 H     1 <1>   0.0800 
 45 H33     11.2372   -13.9680    21.5585 H     1 <1>   0.0800 
 46 C       19.5690   -14.3360    24.7730 C.ar  1 <1>  -0.1435 
 47 C       20.6610   -14.8710    24.0720 C.ar  1 <1>  -0.1500 
 48 H       20.5331   -15.7448    23.4503 H     1 <1>   0.1500 
 49 C       21.9200   -14.2620    24.1850 C.ar  1 <1>  -0.1500 
 50 H       22.7694   -14.6974    23.6797 H     1 <1>   0.1500 
 51 C       22.0890   -13.1080    24.9370 C.ar  1 <1>  -0.1500 
 52 H       23.0406   -12.5972    24.9342 H     1 <1>   0.1500 
 53 C       21.0200   -12.6010    25.7050 C.ar  1 <1>  -0.1500 
 54 H       21.1708   -11.7861    26.3975 H     1 <1>   0.1500 
 55 C       19.7620   -13.1830    25.5440 C.ar  1 <1>  -0.1500 
 56 H       18.9102   -12.7299    26.0294 H     1 <1>   0.1500 
@<TRIPOS>BOND
  1   1  35  1   
  2   2   3  1   
  3   2   4  1   
  4   2  10  1   
  5   2  46  1   
  6   5   6  1   
  7   5   7  1   
  8   5   8  1   
  9   5  10  1   
 10   9  14  2   
 11  10  11  1   
 12  10  14  1   
 13  12  14  am  
 14  12  17  1   
 15  12  26  1   
 16  13  28  2   
 17  15  16  1   
 18  15  28  am  
 19  15  29  1   
 20  17  18  1   
 21  17  19  1   
 22  17  20  1   
 23  20  21  1   
 24  20  22  1   
 25  20  23  1   
 26  23  24  1   
 27  23  25  1   
 28  23  26  1   
 29  26  27  1   
 30  26  28  1   
 31  29  30  1   
 32  29  31  1   
 33  29  32  1   
 34  32  33  ar  
 35  32  40  ar  
 36  33  34  1   
 37  33  35  ar  
 38  35  36  ar  
 39  36  37  1   
 40  36  38  ar  
 41  38  39  1   
 42  38  40  ar  
 43  40  41  1   
 44  41  42  1   
 45  42  43  1   
 46  42  44  1   
 47  42  45  1   
 48  46  47  ar  
 49  46  55  ar  
 50  47  48  1   
 51  47  49  ar  
 52  49  50  1   
 53  49  51  ar  
 54  51  52  1   
 55  51  53  ar  
 56  53  54  1   
 57  53  55  ar  
 58  55  56  1   
@<TRIPOS>SUBSTRUCTURE
  1 ****   9 GROUP 4 H **** 0

# MOE 2018.01 (io_trps.svl 2018.01)
