@<TRIPOS>MOLECULE
thrombin_baum_03_1c.mol2
52 54 1 0 0 
SMALL
USER_CHARGES


@<TRIPOS>ATOM
  1 C1      12.6690   -11.4860    21.5370 C.ar  1 Q37U   0.0000 
  2 H1      12.7155   -12.3250    20.8586 H     1 Q37U   0.0000 
  3 C2      13.5600   -10.4150    21.3790 C.ar  1 Q37U   0.0000 
  4 C3      14.5810   -10.4600    20.2430 C.3   1 Q37U   0.0000 
  5 H31     14.5553    -9.5255    19.6825 H     1 Q37U   0.0000 
  6 H32     14.3570   -11.2911    19.5742 H     1 Q37U   0.0000 
  7 C4      16.5910   -11.7710    20.5870 C.2   1 Q37U   0.0000 
  8 C5      18.0270   -11.8630    21.0590 C.3   1 Q37U   0.0000 
  9 H5      18.1477   -11.0264    21.7472 H     1 Q37U   0.0000 
 10 C6      17.5180   -13.7090    22.6160 C.2   1 Q37U   0.0000 
 11 C7      17.6800   -15.0690    23.2530 C.3   1 Q37U   0.0000 
 12 H7      18.4787   -15.5934    22.7283 H     1 Q37U   0.0000 
 13 C8      18.1350   -14.9750    24.7300 C.3   1 Q37U   0.0000 
 14 H81     18.1127   -15.9670    25.1813 H     1 Q37U   0.0000 
 15 H82     17.4635   -14.3123    25.2759 H     1 Q37U   0.0000 
 16 C9      19.5710   -14.4150    24.7890 C.ar  1 Q37U   0.0000 
 17 N9      15.9000   -10.6450    20.8440 N.am  1 Q37U   0.0000 
 18 H9      16.2896    -9.9344    21.4468 H     1 Q37U   0.0000 
 19 C10     20.6360   -15.0350    24.1300 C.ar  1 Q37U   0.0000 
 20 H10     20.4662   -15.9353    23.5581 H     1 Q37U   0.0000 
 21 C11     21.9270   -14.4880    24.2110 C.ar  1 Q37U   0.0000 
 22 H11     22.7434   -14.9736    23.6971 H     1 Q37U   0.0000 
 23 C12     22.1700   -13.3320    24.9420 C.ar  1 Q37U   0.0000 
 24 H12     23.1684   -12.9236    24.9957 H     1 Q37U   0.0000 
 25 C13     21.1090   -12.6960    25.6120 C.ar  1 Q37U   0.0000 
 26 H13     21.2819   -11.7969    26.1848 H     1 Q37U   0.0000 
 27 C14     19.8250   -13.2480    25.5240 C.ar  1 Q37U   0.0000 
 28 H14     19.0080   -12.7616    26.0362 H     1 Q37U   0.0000 
 29 C15     19.2710   -13.9990    20.9150 C.3   1 Q37U   0.0000 
 30 H151    18.7778   -14.6306    20.1761 H     1 Q37U   0.0000 
 31 H152    19.8783   -14.6183    21.5750 H     1 Q37U   0.0000 
 32 N15     18.3160   -13.1690    21.6590 N.am  1 Q37U   0.0000 
 33 C16     20.0910   -12.8710    20.2600 C.3   1 Q37U   0.0000 
 34 H161    20.6325   -13.2354    19.3870 H     1 Q37U   0.0000 
 35 H162    20.7954   -12.4354    20.9687 H     1 Q37U   0.0000 
 36 C17     19.0090   -11.8520    19.8560 C.3   1 Q37U   0.0000 
 37 H171    19.4410   -10.8611    19.7157 H     1 Q37U   0.0000 
 38 H172    18.5056   -12.1618    18.9402 H     1 Q37U   0.0000 
 39 C18     13.4780    -9.3430    22.2670 C.ar  1 Q37U   0.0000 
 40 H18     14.1585    -8.5118    22.1553 H     1 Q37U   0.0000 
 41 C19     12.5390    -9.3200    23.2940 C.ar  1 Q37U   0.0000 
 42 C20     11.6590   -10.3950    23.4400 C.ar  1 Q37U   0.0000 
 43 H20     10.9265   -10.3897    24.2336 H     1 Q37U   0.0000 
 44 C21     11.7270   -11.4780    22.5580 C.ar  1 Q37U   0.0000 
 45 H21     11.0465   -12.3090    22.6707 H     1 Q37U   0.0000 
 46 N25     16.4240   -15.8630    23.1000 N.4   1 Q37U   1.0000 
 47 H251    15.6689   -15.3943    23.5797 H     1 Q37U   0.0000 
 48 H252    16.5562   -16.7821    23.4973 H     1 Q37U   0.0000 
 49 H253    16.1977   -15.9495    22.1195 H     1 Q37U   0.0000 
 50 O26     16.1160   -12.7330    19.9940 O.2   1 Q37U   0.0000 
 51 O27     16.5480   -13.0580    23.0520 O.2   1 Q37U   0.0000 
 52 BR7     12.4284    -7.7912    24.5545 Br    1 Q37U   0.0000 
@<TRIPOS>BOND
  1   1   2  1   
  2   1   3  ar  
  3   1  44  ar  
  4   3   4  1   
  5   3  39  ar  
  6   4   5  1   
  7   4   6  1   
  8   4  17  1   
  9   7   8  1   
 10   7  17  am  
 11   7  50  2   
 12   8   9  1   
 13   8  32  1   
 14   8  36  1   
 15  10  11  1   
 16  10  32  am  
 17  10  51  2   
 18  11  12  1   
 19  11  13  1   
 20  11  46  1   
 21  13  14  1   
 22  13  15  1   
 23  13  16  1   
 24  16  19  ar  
 25  16  27  ar  
 26  17  18  1   
 27  19  20  1   
 28  19  21  ar  
 29  21  22  1   
 30  21  23  ar  
 31  23  24  1   
 32  23  25  ar  
 33  25  26  1   
 34  25  27  ar  
 35  27  28  1   
 36  29  30  1   
 37  29  31  1   
 38  29  32  1   
 39  29  33  1   
 40  33  34  1   
 41  33  35  1   
 42  33  36  1   
 43  36  37  1   
 44  36  38  1   
 45  39  40  1   
 46  39  41  ar  
 47  41  42  ar  
 48  41  52  1   
 49  42  43  1   
 50  42  44  ar  
 51  44  45  1   
 52  46  47  1   
 53  46  48  1   
 54  46  49  1   
@<TRIPOS>SUBSTRUCTURE
  1 Q37U  51 GROUP 4 H **** 0

# MOE 2018.01 (io_trps.svl 2018.01)
