@<TRIPOS>MOLECULE
thrombin_baum_06_2b.mol2
56 58 1 0 0 
SMALL
USER_CHARGES


@<TRIPOS>ATOM
  1 C1      12.6860   -11.4946    21.5349 C.ar  1 Q37U  -0.1500 
  2 H1      12.7434   -12.3207    20.8729 H     1 Q37U   0.1500 
  3 C2      13.5600   -10.4150    21.3790 C.ar  1 Q37U  -0.1435 
  4 C3      14.5810   -10.4600    20.2430 C.3   1 Q37U   0.2836 
  5 H31     14.5553    -9.5255    19.6825 H     1 Q37U   0.0800 
  6 H32     14.3570   -11.2911    19.5742 H     1 Q37U   0.0800 
  7 C4      16.5910   -11.7710    20.5870 C.2   1 Q37U   0.5690 
  8 C5      18.0270   -11.8630    21.0590 C.3   1 Q37U   0.2811 
  9 H5      18.1477   -11.0264    21.7472 H     1 Q37U   0.0800 
 10 C6      17.5180   -13.7090    22.6160 C.2   1 Q37U   0.5690 
 11 C7      17.6800   -15.0690    23.2530 C.3   1 Q37U   0.4840 
 12 H7      18.4787   -15.5934    22.7283 H     1 Q37U   0.0800 
 13 C8      18.1350   -14.9750    24.7300 C.3   1 Q37U  -0.0165 
 14 H81     18.1127   -15.9670    25.1813 H     1 Q37U   0.0800 
 15 H82     17.4635   -14.3123    25.2759 H     1 Q37U   0.0800 
 16 C9      19.5710   -14.4150    24.7890 C.ar  1 Q37U  -0.1435 
 17 N9      15.9000   -10.6450    20.8440 N.am  1 Q37U  -0.7301 
 18 H9      16.2896    -9.9344    21.4468 H     1 Q37U   0.3700 
 19 C10     20.6360   -15.0350    24.1300 C.ar  1 Q37U  -0.1500 
 20 H10     20.4662   -15.9353    23.5581 H     1 Q37U   0.1500 
 21 C11     21.9270   -14.4880    24.2110 C.ar  1 Q37U  -0.1500 
 22 H11     22.7434   -14.9736    23.6971 H     1 Q37U   0.1500 
 23 C12     22.1700   -13.3320    24.9420 C.ar  1 Q37U  -0.1500 
 24 H12     23.1684   -12.9236    24.9957 H     1 Q37U   0.1500 
 25 C13     21.1090   -12.6960    25.6120 C.ar  1 Q37U  -0.1500 
 26 H13     21.2819   -11.7969    26.1848 H     1 Q37U   0.1500 
 27 C14     19.8250   -13.2480    25.5240 C.ar  1 Q37U  -0.1500 
 28 H14     19.0080   -12.7616    26.0362 H     1 Q37U   0.1500 
 29 C15     19.2710   -13.9990    20.9150 C.3   1 Q37U   0.1401 
 30 H151    18.7778   -14.6306    20.1761 H     1 Q37U   0.0800 
 31 H152    19.8783   -14.6183    21.5750 H     1 Q37U   0.0800 
 32 N15     18.3160   -13.1690    21.6590 N.am  1 Q37U  -0.6602 
 33 C16     20.0910   -12.8710    20.2600 C.3   1 Q37U  -0.1600 
 34 H161    20.6325   -13.2354    19.3870 H     1 Q37U   0.0800 
 35 H162    20.7954   -12.4354    20.9687 H     1 Q37U   0.0800 
 36 C17     19.0090   -11.8520    19.8560 C.3   1 Q37U  -0.1600 
 37 H171    19.4410   -10.8611    19.7157 H     1 Q37U   0.0800 
 38 H172    18.5056   -12.1618    18.9402 H     1 Q37U   0.0800 
 39 C18     13.4780    -9.3430    22.2670 C.ar  1 Q37U  -0.1500 
 40 H18     14.1358    -8.5226    22.1623 H     1 Q37U   0.1500 
 41 C19     12.5249    -9.3551    23.2875 C.ar  1 Q37U   0.0825 
 42 O19     12.3997    -8.3173    24.1852 O.3   1 Q37U  -0.3625 
 43 C19     13.1956    -7.1120    24.1794 C.3   1 Q37U   0.0400 
 44 H191    12.8473    -6.4799    24.9962 H     1 Q37U   0.0800 
 45 H192    13.0521    -6.6106    23.2219 H     1 Q37U   0.0800 
 46 H193    14.2391    -7.3892    24.3302 H     1 Q37U   0.0800 
 47 C20     11.6536   -10.4281    23.4350 C.ar  1 Q37U  -0.1500 
 48 H20     10.9356   -10.4193    24.2133 H     1 Q37U   0.1500 
 49 C21     11.7364   -11.5004    22.5548 C.ar  1 Q37U  -0.1500 
 50 H21     11.0754   -12.3223    22.6591 H     1 Q37U   0.1500 
 51 N25     16.4240   -15.8630    23.1000 N.4   1 Q37U  -0.8530 
 52 H251    15.6689   -15.3943    23.5797 H     1 Q37U   0.4500 
 53 H252    16.5562   -16.7821    23.4973 H     1 Q37U   0.4500 
 54 H253    16.1977   -15.9495    22.1195 H     1 Q37U   0.4500 
 55 O26     16.1160   -12.7330    19.9940 O.2   1 Q37U  -0.5700 
 56 O27     16.5480   -13.0580    23.0520 O.2   1 Q37U  -0.5700 
@<TRIPOS>BOND
  1   1   2  1   
  2   1   3  ar  
  3   1  49  ar  
  4   3   4  1   
  5   3  39  ar  
  6   4   5  1   
  7   4   6  1   
  8   4  17  1   
  9   7   8  1   
 10   7  17  am  
 11   7  55  2   
 12   8   9  1   
 13   8  32  1   
 14   8  36  1   
 15  10  11  1   
 16  10  32  am  
 17  10  56  2   
 18  11  12  1   
 19  11  13  1   
 20  11  51  1   
 21  13  14  1   
 22  13  15  1   
 23  13  16  1   
 24  16  19  ar  
 25  16  27  ar  
 26  17  18  1   
 27  19  20  1   
 28  19  21  ar  
 29  21  22  1   
 30  21  23  ar  
 31  23  24  1   
 32  23  25  ar  
 33  25  26  1   
 34  25  27  ar  
 35  27  28  1   
 36  29  30  1   
 37  29  31  1   
 38  29  32  1   
 39  29  33  1   
 40  33  34  1   
 41  33  35  1   
 42  33  36  1   
 43  36  37  1   
 44  36  38  1   
 45  39  40  1   
 46  39  41  ar  
 47  41  42  1   
 48  41  47  ar  
 49  42  43  1   
 50  43  44  1   
 51  43  45  1   
 52  43  46  1   
 53  47  48  1   
 54  47  49  ar  
 55  49  50  1   
 56  51  52  1   
 57  51  53  1   
 58  51  54  1   
@<TRIPOS>SUBSTRUCTURE
  1 Q37U  56 GROUP 4 H **** 0

# MOE 2018.01 (io_trps.svl 2018.01)
