@<TRIPOS>MOLECULE
thrombin_baum_14_4_2zda.mol2
58 60 1 0 0 
SMALL
USER_CHARGES


@<TRIPOS>ATOM
  1 C1      18.3810   -12.0990    21.1990 C.3   1 Q32U   0.0000 
  2 H1      18.4683   -11.2678    21.8987 H     1 Q32U   0.0000 
  3 N1      18.5130   -13.4040    21.8000 N.am  1 Q32U   0.0000 
  4 C2      19.4730   -12.1720    20.0910 C.3   1 Q32U   0.0000 
  5 H21     19.8701   -11.1849    19.8543 H     1 Q32U   0.0000 
  6 H22     19.0913   -12.6375    19.1823 H     1 Q32U   0.0000 
  7 C3      20.5340   -13.0610    20.7830 C.3   1 Q32U   0.0000 
  8 H31     21.0844   -12.4955    21.5349 H     1 Q32U   0.0000 
  9 H32     21.2325   -13.4716    20.0539 H     1 Q32U   0.0000 
 10 C4      19.6960   -14.1880    21.4420 C.3   1 Q32U   0.0000 
 11 H41     19.4606   -14.9878    20.7399 H     1 Q32U   0.0000 
 12 H42     20.1903   -14.6075    22.3182 H     1 Q32U   0.0000 
 13 C5      17.6870   -15.1680    23.3960 C.3   1 Q32U   0.0000 
 14 H5      18.4164   -15.7499    22.8326 H     1 Q32U   0.0000 
 15 C6      19.6100   -14.5760    24.9350 C.ar  1 Q32U   0.0000 
 16 C7      17.0340   -12.0140    20.5020 C.2   1 Q32U   0.0000 
 17 C8      20.6810   -15.3870    24.5470 C.ar  1 Q32U   0.0000 
 18 H8      20.4968   -16.3907    24.1933 H     1 Q32U   0.0000 
 19 C9      21.9860   -14.9020    24.6160 C.ar  1 Q32U   0.0000 
 20 H9      22.8065   -15.5356    24.3131 H     1 Q32U   0.0000 
 21 C10     22.2460   -13.6120    25.0700 C.ar  1 Q32U   0.0000 
 22 H10     23.2594   -13.2420    25.1201 H     1 Q32U   0.0000 
 23 C11     21.1720   -12.8010    25.4610 C.ar  1 Q32U   0.0000 
 24 H11     21.3544   -11.7980    25.8175 H     1 Q32U   0.0000 
 25 C12     19.8740   -13.2870    25.3900 C.ar  1 Q32U   0.0000 
 26 H12     19.0535   -12.6536    25.6933 H     1 Q32U   0.0000 
 27 N13     16.3870   -15.8760    23.3200 N.4   1 Q32U   1.0000 
 28 H131    15.6904   -15.3571    23.8353 H     1 Q32U   0.0000 
 29 H132    16.4825   -16.7990    23.7187 H     1 Q32U   0.0000 
 30 H133    16.1023   -15.9543    22.3541 H     1 Q32U   0.0000 
 31 C14     17.6210   -13.8070    22.7500 C.2   1 Q32U   0.0000 
 32 C21     10.8590   -10.7400    23.9830 C.cat 1 Q32U   1.0000 
 33 O22     16.5880   -12.9770    19.8920 O.2   1 Q32U   0.0000 
 34 N23     16.4180   -10.8100    20.5750 N.am  1 Q32U   0.0000 
 35 H23     16.7970   -10.0273    21.0887 H     1 Q32U   0.0000 
 36 C24     15.1400   -10.7460    19.8340 C.3   1 Q32U   0.0000 
 37 H241    15.0315   -11.6176    19.1886 H     1 Q32U   0.0000 
 38 H242    15.0962    -9.8394    19.2305 H     1 Q32U   0.0000 
 39 C25     14.0340   -10.7310    20.9050 C.ar  1 Q32U   0.0000 
 40 C26     13.6110   -11.9270    21.4720 C.ar  1 Q32U   0.0000 
 41 H26     14.0617   -12.8561    21.1558 H     1 Q32U   0.0000 
 42 C27     12.6130   -11.9420    22.4430 C.ar  1 Q32U   0.0000 
 43 H27     12.2995   -12.8813    22.8740 H     1 Q32U   0.0000 
 44 C28     12.0130   -10.7510    22.8650 C.ar  1 Q32U   0.0000 
 45 C29     12.4470    -9.5620    22.2880 C.ar  1 Q32U   0.0000 
 46 H29     11.9978    -8.6313    22.6016 H     1 Q32U   0.0000 
 47 C30     13.4480    -9.5390    21.3140 C.ar  1 Q32U   0.0000 
 48 H30     13.7644    -8.6012    20.8817 H     1 Q32U   0.0000 
 49 O32     16.7250   -13.0450    23.1010 O.2   1 Q32U   0.0000 
 50 C33     18.1780   -15.0780    24.8690 C.3   1 Q32U   0.0000 
 51 H331    18.1257   -16.0674    25.3234 H     1 Q32U   0.0000 
 52 H332    17.5338   -14.3914    25.4183 H     1 Q32U   0.0000 
 53 N46     10.5670    -9.6060    24.6040 N.pl3 1 Q32U   0.0000 
 54 H461     9.8427    -9.5876    25.3077 H     1 Q32U   0.0000 
 55 H462    11.0688    -8.7603    24.3735 H     1 Q32U   0.0000 
 56 N47     10.2100   -11.8440    24.2780 N.pl3 1 Q32U   0.0000 
 57 H471     9.4848   -11.8310    24.9809 H     1 Q32U   0.0000 
 58 H472    10.4364   -12.7055    23.8018 H     1 Q32U   0.0000 
@<TRIPOS>BOND
  1   1   2  1   
  2   1   3  1   
  3   1   4  1   
  4   1  16  1   
  5   3  10  1   
  6   3  31  am  
  7   4   5  1   
  8   4   6  1   
  9   4   7  1   
 10   7   8  1   
 11   7   9  1   
 12   7  10  1   
 13  10  11  1   
 14  10  12  1   
 15  13  14  1   
 16  13  27  1   
 17  13  31  1   
 18  13  50  1   
 19  15  17  ar  
 20  15  25  ar  
 21  15  50  1   
 22  16  33  2   
 23  16  34  am  
 24  17  18  1   
 25  17  19  ar  
 26  19  20  1   
 27  19  21  ar  
 28  21  22  1   
 29  21  23  ar  
 30  23  24  1   
 31  23  25  ar  
 32  25  26  1   
 33  27  28  1   
 34  27  29  1   
 35  27  30  1   
 36  31  49  2   
 37  32  44  1   
 38  32  53  ar  
 39  32  56  ar  
 40  34  35  1   
 41  34  36  1   
 42  36  37  1   
 43  36  38  1   
 44  36  39  1   
 45  39  40  ar  
 46  39  47  ar  
 47  40  41  1   
 48  40  42  ar  
 49  42  43  1   
 50  42  44  ar  
 51  44  45  ar  
 52  45  46  1   
 53  45  47  ar  
 54  47  48  1   
 55  50  51  1   
 56  50  52  1   
 57  53  54  1   
 58  53  55  1   
 59  56  57  1   
 60  56  58  1   
@<TRIPOS>SUBSTRUCTURE
  1 Q32U  49 GROUP 4 H **** 0

# MOE 2018.01 (io_trps.svl 2018.01)
