@<TRIPOS>MOLECULE
thrombin_baum_21_7a.mol2
58 60 1 0 0 
SMALL
USER_CHARGES


@<TRIPOS>ATOM
  1 C       12.4004    -7.9335    24.3049 C.3   1 <1>  -0.0965 
  2 H1      11.5881    -8.0216    25.0264 H     1 <1>   0.0800 
  3 H2      12.2602    -7.0457    23.6881 H     1 <1>   0.0800 
  4 H3      13.3599    -7.8956    24.8209 H     1 <1>   0.0800 
  5 C       18.1650   -14.9590    24.7060 C.3   1 <1>  -0.0165 
  6 H       18.2120   -15.9731    25.1029 H     1 <1>   0.0800 
  7 H       17.4867   -14.3615    25.3151 H     1 <1>   0.0800 
  8 N       16.2910   -15.7020    23.2200 N.4   1 <1>  -0.8530 
  9 H       16.3826   -16.6365    23.5920 H     1 <1>   0.4500 
 10 H       15.9691   -15.7503    22.2639 H     1 <1>   0.4500 
 11 H       15.6245   -15.1831    23.7738 H     1 <1>   0.4500 
 12 O       16.4750   -12.9720    23.1170 O.2   1 <1>  -0.5700 
 13 C       17.6190   -15.0150    23.2650 C.3   1 <1>   0.4840 
 14 H       18.3410   -15.5731    22.6688 H     1 <1>   0.0800 
 15 N       18.1320   -13.1740    21.6230 N.am  1 <1>  -0.6602 
 16 O       15.8790   -12.6740    19.9880 O.2   1 <1>  -0.5700 
 17 C       17.4490   -13.6090    22.6980 C.2   1 <1>   0.5690 
 18 N       15.7410   -10.6040    20.8960 N.am  1 <1>  -0.7301 
 19 H       16.1603    -9.8926    21.4776 H     1 <1>   0.3700 
 20 C       19.1960   -13.9380    20.9450 C.3   1 <1>   0.1401 
 21 H       18.7950   -14.6196    20.1948 H     1 <1>   0.0800 
 22 H       19.8116   -14.4958    21.6507 H     1 <1>   0.0800 
 23 C       19.9680   -12.7630    20.3060 C.3   1 <1>  -0.1600 
 24 H       20.5502   -13.0956    19.4466 H     1 <1>   0.0800 
 25 H       20.6288   -12.2862    21.0299 H     1 <1>   0.0800 
 26 C       18.8250   -11.8030    19.8720 C.3   1 <1>  -0.1600 
 27 H       18.3460   -12.1535    18.9578 H     1 <1>   0.0800 
 28 H       19.2007   -10.7911    19.7204 H     1 <1>   0.0800 
 29 C       17.8420   -11.8580    21.0720 C.3   1 <1>   0.2811 
 30 H       17.9592   -11.0457    21.7893 H     1 <1>   0.0800 
 31 C       16.4070   -11.7530    20.6010 C.2   1 <1>   0.5690 
 32 C       14.3830   -10.4310    20.3370 C.3   1 <1>   0.2836 
 33 H       14.1390   -11.2847    19.7048 H     1 <1>   0.0800 
 34 H       14.3483    -9.5176    19.7433 H     1 <1>   0.0800 
 35 C       13.3610   -10.3350    21.4880 C.ar  1 <1>  -0.1435 
 36 C       13.3210    -9.2280    22.3550 C.ar  1 <1>  -0.1500 
 37 H       14.0083    -8.4354    22.2105 H     1 <1>   0.1500 
 38 C       12.4035    -9.1439    23.3966 C.ar  1 <1>  -0.1435 
 39 C       11.4997   -10.1797    23.5893 C.ar  1 <1>  -0.1500 
 40 H       10.7923   -10.1323    24.3765 H     1 <1>   0.1500 
 41 C       11.5189   -11.2844    22.7486 C.ar  1 <1>  -0.1500 
 42 H       10.8197   -12.0635    22.9110 H     1 <1>   0.1500 
 43 C       12.4394   -11.3763    21.7041 C.ar  1 <1>  -0.1435 
 44 C       12.3977   -12.6230    20.8362 C.3   1 <1>  -0.0965 
 45 H1      11.6433   -13.3120    21.2148 H     1 <1>   0.0800 
 46 H2      13.3771   -13.0996    20.8713 H     1 <1>   0.0800 
 47 H3      12.1415   -12.3275    19.8189 H     1 <1>   0.0800 
 48 C       19.5690   -14.3360    24.7730 C.ar  1 <1>  -0.1435 
 49 C       20.6610   -14.8710    24.0720 C.ar  1 <1>  -0.1500 
 50 H       20.5331   -15.7448    23.4503 H     1 <1>   0.1500 
 51 C       21.9200   -14.2620    24.1850 C.ar  1 <1>  -0.1500 
 52 H       22.7694   -14.6974    23.6797 H     1 <1>   0.1500 
 53 C       22.0890   -13.1080    24.9370 C.ar  1 <1>  -0.1500 
 54 H       23.0406   -12.5972    24.9342 H     1 <1>   0.1500 
 55 C       21.0200   -12.6010    25.7050 C.ar  1 <1>  -0.1500 
 56 H       21.1708   -11.7861    26.3975 H     1 <1>   0.1500 
 57 C       19.7620   -13.1830    25.5440 C.ar  1 <1>  -0.1500 
 58 H       18.9102   -12.7299    26.0294 H     1 <1>   0.1500 
@<TRIPOS>BOND
  1   1   2  1   
  2   1   3  1   
  3   1   4  1   
  4   1  38  1   
  5   5   6  1   
  6   5   7  1   
  7   5  13  1   
  8   5  48  1   
  9   8   9  1   
 10   8  10  1   
 11   8  11  1   
 12   8  13  1   
 13  12  17  2   
 14  13  14  1   
 15  13  17  1   
 16  15  17  am  
 17  15  20  1   
 18  15  29  1   
 19  16  31  2   
 20  18  19  1   
 21  18  31  am  
 22  18  32  1   
 23  20  21  1   
 24  20  22  1   
 25  20  23  1   
 26  23  24  1   
 27  23  25  1   
 28  23  26  1   
 29  26  27  1   
 30  26  28  1   
 31  26  29  1   
 32  29  30  1   
 33  29  31  1   
 34  32  33  1   
 35  32  34  1   
 36  32  35  1   
 37  35  36  ar  
 38  35  43  ar  
 39  36  37  1   
 40  36  38  ar  
 41  38  39  ar  
 42  39  40  1   
 43  39  41  ar  
 44  41  42  1   
 45  41  43  ar  
 46  43  44  1   
 47  44  45  1   
 48  44  46  1   
 49  44  47  1   
 50  48  49  ar  
 51  48  57  ar  
 52  49  50  1   
 53  49  51  ar  
 54  51  52  1   
 55  51  53  ar  
 56  53  54  1   
 57  53  55  ar  
 58  55  56  1   
 59  55  57  ar  
 60  57  58  1   
@<TRIPOS>SUBSTRUCTURE
  1 ****  12 GROUP 4 H **** 0

# MOE 2018.01 (io_trps.svl 2018.01)
