@<TRIPOS>MOLECULE
thrombin_baum_24_7d_r.mol2
60 62 1 0 0 
SMALL
USER_CHARGES


@<TRIPOS>ATOM
  1 C       18.1650   -14.9590    24.7060 C.3   1 <1>  -0.0165 
  2 H       18.2120   -15.9731    25.1029 H     1 <1>   0.0800 
  3 H       17.4867   -14.3615    25.3151 H     1 <1>   0.0800 
  4 N       16.2910   -15.7020    23.2200 N.4   1 <1>  -0.8530 
  5 H       16.3826   -16.6365    23.5920 H     1 <1>   0.4500 
  6 H       15.9691   -15.7503    22.2639 H     1 <1>   0.4500 
  7 H       15.6245   -15.1831    23.7738 H     1 <1>   0.4500 
  8 O       16.4750   -12.9720    23.1170 O.2   1 <1>  -0.5700 
  9 C       17.6190   -15.0150    23.2650 C.3   1 <1>   0.4840 
 10 H       18.3410   -15.5731    22.6688 H     1 <1>   0.0800 
 11 N       18.1320   -13.1740    21.6230 N.am  1 <1>  -0.6602 
 12 O       15.8790   -12.6740    19.9880 O.2   1 <1>  -0.5700 
 13 C       17.4490   -13.6090    22.6980 C.2   1 <1>   0.5690 
 14 N       15.7410   -10.6040    20.8960 N.am  1 <1>  -0.7301 
 15 H       16.1603    -9.8926    21.4776 H     1 <1>   0.3700 
 16 C       19.1960   -13.9380    20.9450 C.3   1 <1>   0.1401 
 17 H       18.7950   -14.6196    20.1948 H     1 <1>   0.0800 
 18 H       19.8116   -14.4958    21.6507 H     1 <1>   0.0800 
 19 C       19.9680   -12.7630    20.3060 C.3   1 <1>  -0.1600 
 20 H       20.5502   -13.0956    19.4466 H     1 <1>   0.0800 
 21 H       20.6288   -12.2862    21.0299 H     1 <1>   0.0800 
 22 C       18.8250   -11.8030    19.8720 C.3   1 <1>  -0.1600 
 23 H       18.3460   -12.1535    18.9578 H     1 <1>   0.0800 
 24 H       19.2007   -10.7911    19.7204 H     1 <1>   0.0800 
 25 C       17.8420   -11.8580    21.0720 C.3   1 <1>   0.2811 
 26 H       17.9592   -11.0457    21.7893 H     1 <1>   0.0800 
 27 C       16.4070   -11.7530    20.6010 C.2   1 <1>   0.5690 
 28 C       14.3830   -10.4310    20.3370 C.3   1 <1>   0.1401 
 29 H       14.1390   -11.2847    19.7048 H     1 <1>   0.0800 
 30 H       14.3483    -9.5176    19.7433 H     1 <1>   0.0800 
 31 C       13.3610   -10.3350    21.4880 C.3   1 <1>  -0.0800 
 32 H       12.4020   -10.3200    20.9644 H     1 <1>   0.0800 
 33 C       13.3210    -9.2280    22.3550 C.3   1 <1>  -0.1600 
 34 H1      13.2745    -8.3170    21.7573 H     1 <1>   0.0800 
 35 H2      14.2428    -9.1978    22.9376 H     1 <1>   0.0800 
 36 C       12.1261    -9.2293    23.3199 C.3   1 <1>   0.1900 
 37 H1      11.2004    -9.1945    22.7386 H     1 <1>   0.0800 
 38 N2      12.1865    -8.0548    24.1963 N.3   1 <1>  -0.9900 
 39 H21     12.1787    -7.2092    23.6444 H     1 <1>   0.3600 
 40 H22     13.0290    -8.0897    24.7517 H     1 <1>   0.3600 
 41 C       12.1208   -10.5020    24.1666 C.3   1 <1>  -0.1600 
 42 H1      12.9899   -10.5021    24.8256 H     1 <1>   0.0800 
 43 H2      11.2183   -10.5218    24.7790 H     1 <1>   0.0800 
 44 C       12.1651   -11.7412    23.2639 C.3   1 <1>  -0.1600 
 45 H1      11.2413   -11.8008    22.6849 H     1 <1>   0.0800 
 46 H2      12.2495   -12.6385    23.8786 H     1 <1>   0.0800 
 47 C       13.3646   -11.6489    22.3083 C.3   1 <1>  -0.1600 
 48 H1      14.2809   -11.7035    22.8959 H     1 <1>   0.0800 
 49 H2      13.3440   -12.5046    21.6309 H     1 <1>   0.0800 
 50 C       19.5690   -14.3360    24.7730 C.ar  1 <1>  -0.1435 
 51 C       20.6610   -14.8710    24.0720 C.ar  1 <1>  -0.1500 
 52 H       20.5331   -15.7448    23.4503 H     1 <1>   0.1500 
 53 C       21.9200   -14.2620    24.1850 C.ar  1 <1>  -0.1500 
 54 H       22.7694   -14.6974    23.6797 H     1 <1>   0.1500 
 55 C       22.0890   -13.1080    24.9370 C.ar  1 <1>  -0.1500 
 56 H       23.0406   -12.5972    24.9342 H     1 <1>   0.1500 
 57 C       21.0200   -12.6010    25.7050 C.ar  1 <1>  -0.1500 
 58 H       21.1708   -11.7861    26.3975 H     1 <1>   0.1500 
 59 C       19.7620   -13.1830    25.5440 C.ar  1 <1>  -0.1500 
 60 H       18.9102   -12.7299    26.0294 H     1 <1>   0.1500 
@<TRIPOS>BOND
  1   1   2  1   
  2   1   3  1   
  3   1   9  1   
  4   1  50  1   
  5   4   5  1   
  6   4   6  1   
  7   4   7  1   
  8   4   9  1   
  9   8  13  2   
 10   9  10  1   
 11   9  13  1   
 12  11  13  am  
 13  11  16  1   
 14  11  25  1   
 15  12  27  2   
 16  14  15  1   
 17  14  27  am  
 18  14  28  1   
 19  16  17  1   
 20  16  18  1   
 21  16  19  1   
 22  19  20  1   
 23  19  21  1   
 24  19  22  1   
 25  22  23  1   
 26  22  24  1   
 27  22  25  1   
 28  25  26  1   
 29  25  27  1   
 30  28  29  1   
 31  28  30  1   
 32  28  31  1   
 33  31  32  1   
 34  31  33  1   
 35  31  47  1   
 36  33  34  1   
 37  33  35  1   
 38  33  36  1   
 39  36  37  1   
 40  36  38  1   
 41  36  41  1   
 42  38  39  1   
 43  38  40  1   
 44  41  42  1   
 45  41  43  1   
 46  41  44  1   
 47  44  45  1   
 48  44  46  1   
 49  44  47  1   
 50  47  48  1   
 51  47  49  1   
 52  50  51  ar  
 53  50  59  ar  
 54  51  52  1   
 55  51  53  ar  
 56  53  54  1   
 57  53  55  ar  
 58  55  56  1   
 59  55  57  ar  
 60  57  58  1   
 61  57  59  ar  
 62  59  60  1   
@<TRIPOS>SUBSTRUCTURE
  1 ****   8 GROUP 4 H **** 0

# MOE 2018.01 (io_trps.svl 2018.01)
