@<TRIPOS>MOLECULE
thrombin_baum_25_7e.mol2
56 58 1 0 0 
SMALL
USER_CHARGES


@<TRIPOS>ATOM
  1 C1      18.3810   -12.0990    21.1990 C.3   1 Q32U   0.2811 
  2 H1      18.4683   -11.2678    21.8987 H     1 Q32U   0.0800 
  3 N1      18.5130   -13.4040    21.8000 N.am  1 Q32U  -0.6602 
  4 C2      19.4730   -12.1720    20.0910 C.3   1 Q32U  -0.1600 
  5 H21     19.8701   -11.1849    19.8543 H     1 Q32U   0.0800 
  6 H22     19.0913   -12.6375    19.1823 H     1 Q32U   0.0800 
  7 C3      20.5340   -13.0610    20.7830 C.3   1 Q32U  -0.1600 
  8 H31     21.0844   -12.4955    21.5349 H     1 Q32U   0.0800 
  9 H32     21.2325   -13.4716    20.0539 H     1 Q32U   0.0800 
 10 C4      19.6960   -14.1880    21.4420 C.3   1 Q32U   0.1401 
 11 H41     19.4606   -14.9878    20.7399 H     1 Q32U   0.0800 
 12 H42     20.1903   -14.6075    22.3182 H     1 Q32U   0.0800 
 13 C5      17.6870   -15.1680    23.3960 C.3   1 Q32U   0.4840 
 14 H5      18.4164   -15.7499    22.8326 H     1 Q32U   0.0800 
 15 C6      19.6100   -14.5760    24.9350 C.ar  1 Q32U  -0.1435 
 16 C7      17.0340   -12.0140    20.5020 C.2   1 Q32U   0.5690 
 17 C8      20.6810   -15.3870    24.5470 C.ar  1 Q32U  -0.1500 
 18 H8      20.4968   -16.3907    24.1933 H     1 Q32U   0.1500 
 19 C9      21.9860   -14.9020    24.6160 C.ar  1 Q32U  -0.1500 
 20 H9      22.8065   -15.5356    24.3131 H     1 Q32U   0.1500 
 21 C10     22.2460   -13.6120    25.0700 C.ar  1 Q32U  -0.1500 
 22 H10     23.2594   -13.2420    25.1201 H     1 Q32U   0.1500 
 23 C11     21.1720   -12.8010    25.4610 C.ar  1 Q32U  -0.1500 
 24 H11     21.3544   -11.7980    25.8175 H     1 Q32U   0.1500 
 25 C12     19.8740   -13.2870    25.3900 C.ar  1 Q32U  -0.1500 
 26 H12     19.0535   -12.6536    25.6933 H     1 Q32U   0.1500 
 27 N13     16.3870   -15.8760    23.3200 N.4   1 Q32U  -0.8530 
 28 H131    15.6904   -15.3571    23.8353 H     1 Q32U   0.4500 
 29 H132    16.4825   -16.7990    23.7187 H     1 Q32U   0.4500 
 30 H133    16.1023   -15.9543    22.3541 H     1 Q32U   0.4500 
 31 C14     17.6210   -13.8070    22.7500 C.2   1 Q32U   0.5690 
 32 O22     16.5880   -12.9770    19.8920 O.2   1 Q32U  -0.5700 
 33 N23     16.4180   -10.8100    20.5750 N.am  1 Q32U  -0.7301 
 34 H23     16.7970   -10.0273    21.0887 H     1 Q32U   0.3700 
 35 C24     15.1400   -10.7460    19.8340 C.3   1 Q32U   0.2836 
 36 H241    15.0315   -11.6176    19.1886 H     1 Q32U   0.0800 
 37 H242    15.0962    -9.8394    19.2305 H     1 Q32U   0.0800 
 38 C25     14.0340   -10.7310    20.9050 C.ar  1 Q32U  -0.1435 
 39 C26     13.6110   -11.9270    21.4720 C.ar  1 Q32U  -0.1500 
 40 H26     14.0617   -12.8561    21.1558 H     1 Q32U   0.1500 
 41 C27     12.6097   -11.9291    22.4377 C.ar  1 Q32U  -0.1500 
 42 H27     12.2834   -12.8434    22.8617 H     1 Q32U   0.1500 
 43 C28     12.0333   -10.7306    22.8461 C.ar  1 Q32U  -0.1500 
 44 H28     11.2691   -10.7404    23.5810 H     1 Q32U   0.1500 
 45 C29     12.4581    -9.5239    22.2919 C.ar  1 Q32U  -0.1435 
 46 C29     11.8355    -8.2162    22.7294 C.3   1 Q32U   0.2635 
 47 O291    11.0029    -7.8503    21.6218 O.3   1 Q32U  -0.6800 
 48 H291    10.7764    -8.6563    21.1263 H     1 Q32U   0.4000 
 49 H292    12.6063    -7.4701    22.8714 H     1 Q32U   0.0800 
 50 H293    11.2248    -8.3711    23.6094 H     1 Q32U   0.0800 
 51 C30     13.4578    -9.5315    21.3197 C.ar  1 Q32U  -0.1500 
 52 H30     13.7776    -8.6157    20.8916 H     1 Q32U   0.1500 
 53 O32     16.7250   -13.0450    23.1010 O.2   1 Q32U  -0.5700 
 54 C33     18.1780   -15.0780    24.8690 C.3   1 Q32U  -0.0165 
 55 H331    18.1257   -16.0674    25.3234 H     1 Q32U   0.0800 
 56 H332    17.5338   -14.3914    25.4183 H     1 Q32U   0.0800 
@<TRIPOS>BOND
  1   1   2  1   
  2   1   3  1   
  3   1   4  1   
  4   1  16  1   
  5   3  10  1   
  6   3  31  am  
  7   4   5  1   
  8   4   6  1   
  9   4   7  1   
 10   7   8  1   
 11   7   9  1   
 12   7  10  1   
 13  10  11  1   
 14  10  12  1   
 15  13  14  1   
 16  13  27  1   
 17  13  31  1   
 18  13  54  1   
 19  15  17  ar  
 20  15  25  ar  
 21  15  54  1   
 22  16  32  2   
 23  16  33  am  
 24  17  18  1   
 25  17  19  ar  
 26  19  20  1   
 27  19  21  ar  
 28  21  22  1   
 29  21  23  ar  
 30  23  24  1   
 31  23  25  ar  
 32  25  26  1   
 33  27  28  1   
 34  27  29  1   
 35  27  30  1   
 36  31  53  2   
 37  33  34  1   
 38  33  35  1   
 39  35  36  1   
 40  35  37  1   
 41  35  38  1   
 42  38  39  ar  
 43  38  51  ar  
 44  39  40  1   
 45  39  41  ar  
 46  41  42  1   
 47  41  43  ar  
 48  43  44  1   
 49  43  45  ar  
 50  45  46  1   
 51  45  51  ar  
 52  46  47  1   
 53  46  49  1   
 54  46  50  1   
 55  47  48  1   
 56  51  52  1   
 57  54  55  1   
 58  54  56  1   
@<TRIPOS>SUBSTRUCTURE
  1 Q32U  53 GROUP 4 H **** 0

# MOE 2018.01 (io_trps.svl 2018.01)
