@<TRIPOS>MOLECULE
thrombin_baum_10_3a_2zf0.mol2
55 57 1 0 0 
SMALL
USER_CHARGES


@<TRIPOS>ATOM
  1 C1      18.0140   -14.6630    24.7000 C.3   1 Q51U   0.0000 
  2 H11     17.9720   -15.6550    25.1497 H     1 Q51U   0.0000 
  3 H12     17.3811   -13.9801    25.2667 H     1 Q51U   0.0000 
  4 N1      16.2570   -15.5260    23.1720 N.4   1 Q51U   1.0000 
  5 H11     16.4165   -16.4489    23.5500 H     1 Q51U   0.0000 
  6 H12     15.9666   -15.6027    22.2077 H     1 Q51U   0.0000 
  7 H13     15.5345   -15.0640    23.7055 H     1 Q51U   0.0000 
  8 O1      16.3480   -12.6830    23.0750 O.2   1 Q51U   0.0000 
  9 C2      17.5000   -14.7430    23.2490 C.3   1 Q51U   0.0000 
 10 H2      18.2489   -15.2543    22.6442 H     1 Q51U   0.0000 
 11 N2      18.1930   -12.9330    21.8380 N.am  1 Q51U   0.0000 
 12 O2      16.0360   -12.4400    19.8500 O.2   1 Q51U   0.0000 
 13 C3      17.3000   -13.3520    22.6910 C.2   1 Q51U   0.0000 
 14 N3      15.9110   -10.3740    20.9350 N.am  1 Q51U   0.0000 
 15 H3      16.2901    -9.7298    21.6143 H     1 Q51U   0.0000 
 16 C4      19.0740   -13.8870    21.1700 C.3   1 Q51U   0.0000 
 17 H41     18.5064   -14.5704    20.5385 H     1 Q51U   0.0000 
 18 H42     19.6549   -14.4588    21.8937 H     1 Q51U   0.0000 
 19 C5      19.9900   -12.9680    20.3180 C.3   1 Q51U   0.0000 
 20 H51     20.3803   -13.5000    19.4504 H     1 Q51U   0.0000 
 21 H52     20.8193   -12.5831    20.9114 H     1 Q51U   0.0000 
 22 C6      19.0350   -11.8240    19.8870 C.3   1 Q51U   0.0000 
 23 H61     18.5624   -12.0531    18.9319 H     1 Q51U   0.0000 
 24 H62     19.5729   -10.8792    19.8088 H     1 Q51U   0.0000 
 25 C7      17.9870   -11.7660    21.0170 C.3   1 Q51U   0.0000 
 26 H7      18.1286   -10.8697    21.6209 H     1 Q51U   0.0000 
 27 C8      16.5800   -11.5870    20.5260 C.2   1 Q51U   0.0000 
 28 C9      14.6470   -10.1790    20.2730 C.3   1 Q51U   0.0000 
 29 H91     14.4944   -10.9639    19.5322 H     1 Q51U   0.0000 
 30 H92     14.6357    -9.2069    19.7800 H     1 Q51U   0.0000 
 31 C10     13.5400   -10.2380    21.3220 C.ar  1 Q51U   0.0000 
 32 C11     13.3970    -9.2110    22.2610 C.ar  1 Q51U   0.0000 
 33 H11     14.0729    -8.3688    22.2465 H     1 Q51U   0.0000 
 34 C12     12.3790    -9.2740    23.2190 C.ar  1 Q51U   0.0000 
 35 C13     12.2060    -8.1660    24.2510 C.3   1 Q51U   0.0000 
 36 H131    12.9657    -7.4005    24.0930 H     1 Q51U   0.0000 
 37 H132    12.3127    -8.5825    25.2526 H     1 Q51U   0.0000 
 38 H133    11.2159    -7.7226    24.1455 H     1 Q51U   0.0000 
 39 C14     11.5180   -10.3670    23.2230 C.ar  1 Q51U   0.0000 
 40 H14     10.7312   -10.4179    23.9610 H     1 Q51U   0.0000 
 41 C15     11.6510   -11.4030    22.2890 C.ar  1 Q51U   0.0000 
 42 H15     10.9754   -12.2455    22.3051 H     1 Q51U   0.0000 
 43 C16     12.6700   -11.3300    21.3370 C.ar  1 Q51U   0.0000 
 44 H16     12.7855   -12.1205    20.6102 H     1 Q51U   0.0000 
 45 C17     19.4550   -14.1570    24.7350 C.ar  1 Q51U   0.0000 
 46 C18     20.4590   -14.8380    24.0410 C.ar  1 Q51U   0.0000 
 47 H18     20.2154   -15.7267    23.4777 H     1 Q51U   0.0000 
 48 C19     21.7790   -14.3730    24.0730 C.ar  1 Q51U   0.0000 
 49 H19     22.5468   -14.9047    23.5307 H     1 Q51U   0.0000 
 50 C20     22.1120   -13.2290    24.7990 C.ar  1 Q51U   0.0000 
 51 H20     23.1315   -12.8736    24.8252 H     1 Q51U   0.0000 
 52 C22     21.1040   -12.5490    25.4930 C.ar  1 Q51U   0.0000 
 53 H22     21.3476   -11.6611    26.0576 H     1 Q51U   0.0000 
 54 C23     19.7820   -13.0110    25.4610 C.ar  1 Q51U   0.0000 
 55 H23     19.0128   -12.4782    26.0003 H     1 Q51U   0.0000 
@<TRIPOS>BOND
  1   1   2  1   
  2   1   3  1   
  3   1   9  1   
  4   1  45  1   
  5   4   5  1   
  6   4   6  1   
  7   4   7  1   
  8   4   9  1   
  9   8  13  2   
 10   9  10  1   
 11   9  13  1   
 12  11  13  am  
 13  11  16  1   
 14  11  25  1   
 15  12  27  2   
 16  14  15  1   
 17  14  27  am  
 18  14  28  1   
 19  16  17  1   
 20  16  18  1   
 21  16  19  1   
 22  19  20  1   
 23  19  21  1   
 24  19  22  1   
 25  22  23  1   
 26  22  24  1   
 27  22  25  1   
 28  25  26  1   
 29  25  27  1   
 30  28  29  1   
 31  28  30  1   
 32  28  31  1   
 33  31  32  ar  
 34  31  43  ar  
 35  32  33  1   
 36  32  34  ar  
 37  34  35  1   
 38  34  39  ar  
 39  35  36  1   
 40  35  37  1   
 41  35  38  1   
 42  39  40  1   
 43  39  41  ar  
 44  41  42  1   
 45  41  43  ar  
 46  43  44  1   
 47  45  46  ar  
 48  45  54  ar  
 49  46  47  1   
 50  46  48  ar  
 51  48  49  1   
 52  48  50  ar  
 53  50  51  1   
 54  50  52  ar  
 55  52  53  1   
 56  52  54  ar  
 57  54  55  1   
@<TRIPOS>SUBSTRUCTURE
  1 Q51U   8 GROUP 4 H **** 0

# MOE 2018.01 (io_trps.svl 2018.01)
