@<TRIPOS>MOLECULE
thrombin_baum_23_7c.mol2
52 54 1 0 0 
SMALL
USER_CHARGES


@<TRIPOS>ATOM
  1 C       18.1650   -14.9590    24.7060 C.3   1 <1>  -0.0165 
  2 H       18.2120   -15.9731    25.1029 H     1 <1>   0.0800 
  3 H       17.4867   -14.3615    25.3151 H     1 <1>   0.0800 
  4 N       16.2910   -15.7020    23.2200 N.4   1 <1>  -0.8530 
  5 H       16.3826   -16.6365    23.5920 H     1 <1>   0.4500 
  6 H       15.9691   -15.7503    22.2639 H     1 <1>   0.4500 
  7 H       15.6245   -15.1831    23.7738 H     1 <1>   0.4500 
  8 O       16.4750   -12.9720    23.1170 O.2   1 <1>  -0.5700 
  9 C       17.6190   -15.0150    23.2650 C.3   1 <1>   0.4840 
 10 H       18.3410   -15.5731    22.6688 H     1 <1>   0.0800 
 11 N       18.1320   -13.1740    21.6230 N.am  1 <1>  -0.6602 
 12 O       15.8790   -12.6740    19.9880 O.2   1 <1>  -0.5700 
 13 C       17.4490   -13.6090    22.6980 C.2   1 <1>   0.5690 
 14 N       15.7410   -10.6040    20.8960 N.am  1 <1>  -0.7301 
 15 H       16.1603    -9.8926    21.4776 H     1 <1>   0.3700 
 16 C       19.1960   -13.9380    20.9450 C.3   1 <1>   0.1401 
 17 H       18.7950   -14.6196    20.1948 H     1 <1>   0.0800 
 18 H       19.8116   -14.4958    21.6507 H     1 <1>   0.0800 
 19 C       19.9680   -12.7630    20.3060 C.3   1 <1>  -0.1600 
 20 H       20.5502   -13.0956    19.4466 H     1 <1>   0.0800 
 21 H       20.6288   -12.2862    21.0299 H     1 <1>   0.0800 
 22 C       18.8250   -11.8030    19.8720 C.3   1 <1>  -0.1600 
 23 H       18.3460   -12.1535    18.9578 H     1 <1>   0.0800 
 24 H       19.2007   -10.7911    19.7204 H     1 <1>   0.0800 
 25 C       17.8420   -11.8580    21.0720 C.3   1 <1>   0.2811 
 26 H       17.9592   -11.0457    21.7893 H     1 <1>   0.0800 
 27 C       16.4070   -11.7530    20.6010 C.2   1 <1>   0.5690 
 28 C       14.3830   -10.4310    20.3370 C.3   1 <1>   0.2836 
 29 H       14.1390   -11.2847    19.7048 H     1 <1>   0.0800 
 30 H       14.3483    -9.5176    19.7433 H     1 <1>   0.0800 
 31 C       13.3610   -10.3350    21.4880 C.ar  1 <1>  -0.1435 
 32 C       13.3210    -9.2280    22.3550 C.ar  1 <1>  -0.1500 
 33 H       14.0013    -8.4264    22.2200 H     1 <1>   0.1500 
 34 C       12.3932    -9.1752    23.3897 C.ar  1 <1>  -0.1500 
 35 H       12.3614    -8.3423    24.0432 H     1 <1>   0.1500 
 36 C       11.4952   -10.2265    23.5709 C.ar  1 <1>   0.1770 
 37 H       10.8579   -10.1924    24.2821 H     1 <1>  -0.1770 
 38 C       11.5264   -11.3286    22.7169 C.ar  1 <1>  -0.1500 
 39 H       10.8384   -12.1206    22.8618 H     1 <1>   0.1500 
 40 C       12.4569   -11.3808    21.6840 C.ar  1 <1>  -0.1500 
 41 CL      12.4930   -12.7754    20.6218 Cl    1 <1>   0.1500 
 42 C       19.5690   -14.3360    24.7730 C.ar  1 <1>  -0.1435 
 43 C       20.6610   -14.8710    24.0720 C.ar  1 <1>  -0.1500 
 44 H       20.5331   -15.7448    23.4503 H     1 <1>   0.1500 
 45 C       21.9200   -14.2620    24.1850 C.ar  1 <1>  -0.1500 
 46 H       22.7694   -14.6974    23.6797 H     1 <1>   0.1500 
 47 C       22.0890   -13.1080    24.9370 C.ar  1 <1>  -0.1500 
 48 H       23.0406   -12.5972    24.9342 H     1 <1>   0.1500 
 49 C       21.0200   -12.6010    25.7050 C.ar  1 <1>  -0.1500 
 50 H       21.1708   -11.7861    26.3975 H     1 <1>   0.1500 
 51 C       19.7620   -13.1830    25.5440 C.ar  1 <1>  -0.1500 
 52 H       18.9102   -12.7299    26.0294 H     1 <1>   0.1500 
@<TRIPOS>BOND
  1   1   2  1   
  2   1   3  1   
  3   1   9  1   
  4   1  42  1   
  5   4   5  1   
  6   4   6  1   
  7   4   7  1   
  8   4   9  1   
  9   8  13  2   
 10   9  10  1   
 11   9  13  1   
 12  11  13  am  
 13  11  16  1   
 14  11  25  1   
 15  12  27  2   
 16  14  15  1   
 17  14  27  am  
 18  14  28  1   
 19  16  17  1   
 20  16  18  1   
 21  16  19  1   
 22  19  20  1   
 23  19  21  1   
 24  19  22  1   
 25  22  23  1   
 26  22  24  1   
 27  22  25  1   
 28  25  26  1   
 29  25  27  1   
 30  28  29  1   
 31  28  30  1   
 32  28  31  1   
 33  31  32  ar  
 34  31  40  ar  
 35  32  33  1   
 36  32  34  ar  
 37  34  35  1   
 38  34  36  ar  
 39  36  37  1   
 40  36  38  ar  
 41  38  39  1   
 42  38  40  ar  
 43  40  41  1   
 44  42  43  ar  
 45  42  51  ar  
 46  43  44  1   
 47  43  45  ar  
 48  45  46  1   
 49  45  47  ar  
 50  47  48  1   
 51  47  49  ar  
 52  49  50  1   
 53  49  51  ar  
 54  51  52  1   
@<TRIPOS>SUBSTRUCTURE
  1 ****   8 GROUP 4 H **** 0

# MOE 2018.01 (io_trps.svl 2018.01)
