@<TRIPOS>MOLECULE
thrombin_baum_15_5_2zff.mol2
52 54 1 0 0 
SMALL
USER_CHARGES


@<TRIPOS>ATOM
  1 N1      16.3900   -15.7830    23.1600 N.4   1 Q53U   1.0000 
  2 H11     16.0318   -15.8591    22.2187 H     1 Q53U   0.0000 
  3 H12     15.7134   -15.3082    23.7404 H     1 Q53U   0.0000 
  4 H13     16.5621   -16.7067    23.5304 H     1 Q53U   0.0000 
  5 C2      17.6570   -15.0120    23.1460 C.3   1 Q53U   0.0000 
  6 H2      18.3931   -15.5142    22.5183 H     1 Q53U   0.0000 
  7 C3      17.4360   -13.6310    22.5680 C.2   1 Q53U   0.0000 
  8 O1      16.5060   -12.9450    23.0320 O.2   1 Q53U   0.0000 
  9 C1      18.1720   -14.9170    24.5950 C.3   1 Q53U   0.0000 
 10 H11     18.1475   -15.9169    25.0283 H     1 Q53U   0.0000 
 11 H12     17.4990   -14.2637    25.1504 H     1 Q53U   0.0000 
 12 C16     19.5920   -14.3710    24.7440 C.ar  1 Q53U   0.0000 
 13 C17     20.6910   -14.9640    24.0890 C.ar  1 Q53U   0.0000 
 14 H17     20.5301   -15.8288    23.4623 H     1 Q53U   0.0000 
 15 C21     19.8220   -13.2490    25.5510 C.ar  1 Q53U   0.0000 
 16 H21     18.9958   -12.7775    26.0624 H     1 Q53U   0.0000 
 17 C18     21.9860   -14.4540    24.2350 C.ar  1 Q53U   0.0000 
 18 H18     22.8179   -14.9201    23.7279 H     1 Q53U   0.0000 
 19 C20     21.1010   -12.7410    25.6970 C.ar  1 Q53U   0.0000 
 20 H20     21.2617   -11.8752    26.3223 H     1 Q53U   0.0000 
 21 C19     22.1890   -13.3330    25.0460 C.ar  1 Q53U   0.0000 
 22 H19     23.1816   -12.9258    25.1694 H     1 Q53U   0.0000 
 23 N2      18.2450   -13.1710    21.5890 N.am  1 Q53U   0.0000 
 24 C7      18.0280   -11.8220    21.0620 C.3   1 Q53U   0.0000 
 25 H7      18.2045   -11.0152    21.7733 H     1 Q53U   0.0000 
 26 C8      16.6090   -11.7290    20.5280 C.2   1 Q53U   0.0000 
 27 O2      16.2150   -12.7280    19.9260 O.2   1 Q53U   0.0000 
 28 C6      18.9440   -11.8950    19.8030 C.3   1 Q53U   0.0000 
 29 H61     19.2913   -10.9056    19.5054 H     1 Q53U   0.0000 
 30 H62     18.4318   -12.3675    18.9649 H     1 Q53U   0.0000 
 31 C5      20.1040   -12.7670    20.3170 C.3   1 Q53U   0.0000 
 32 H51     20.7280   -12.2141    21.0192 H     1 Q53U   0.0000 
 33 H52     20.7178   -13.1279    19.4917 H     1 Q53U   0.0000 
 34 C4      19.3760   -13.9390    21.0230 C.3   1 Q53U   0.0000 
 35 H41     19.0449   -14.7027    20.3193 H     1 Q53U   0.0000 
 36 H42     19.9900   -14.3997    21.7968 H     1 Q53U   0.0000 
 37 N3      15.9710   -10.5760    20.7540 N.am  1 Q53U   0.0000 
 38 H3      16.3683    -9.8488    21.3315 H     1 Q53U   0.0000 
 39 C9      14.6590   -10.4300    20.1130 C.3   1 Q53U   0.0000 
 40 H91     14.5109   -11.2371    19.3955 H     1 Q53U   0.0000 
 41 H92     14.6091    -9.4713    19.5968 H     1 Q53U   0.0000 
 42 C10     13.5670   -10.4920    21.1900 C.ar  1 Q53U   0.0000 
 43 C11     13.3860    -9.3970    22.0370 C.ar  1 Q53U   0.0000 
 44 H11     14.0074    -8.5200    21.9320 H     1 Q53U   0.0000 
 45 C12     12.4020    -9.4430    23.0150 C.ar  1 Q53U   0.0000 
 46 H12     12.2637    -8.5959    23.6705 H     1 Q53U   0.0000 
 47 C13     11.5890   -10.5670    23.1640 C.ar  1 Q53U   0.0000 
 48 H13     10.8245   -10.5930    23.9264 H     1 Q53U   0.0000 
 49 C14     11.7790   -11.6630    22.3090 C.ar  1 Q53U   0.0000 
 50 H14     11.1606   -12.5426    22.4102 H     1 Q53U   0.0000 
 51 C15     12.7700   -11.6130    21.3270 C.ar  1 Q53U   0.0000 
 52 H15     12.9151   -12.4570    20.6690 H     1 Q53U   0.0000 
@<TRIPOS>BOND
  1   1   2  1   
  2   1   3  1   
  3   1   4  1   
  4   1   5  1   
  5   5   6  1   
  6   5   7  1   
  7   5   9  1   
  8   7   8  2   
  9   7  23  am  
 10   9  10  1   
 11   9  11  1   
 12   9  12  1   
 13  12  13  ar  
 14  12  15  ar  
 15  13  14  1   
 16  13  17  ar  
 17  15  16  1   
 18  15  19  ar  
 19  17  18  1   
 20  17  21  ar  
 21  19  20  1   
 22  19  21  ar  
 23  21  22  1   
 24  23  24  1   
 25  23  34  1   
 26  24  25  1   
 27  24  26  1   
 28  24  28  1   
 29  26  27  2   
 30  26  37  am  
 31  28  29  1   
 32  28  30  1   
 33  28  31  1   
 34  31  32  1   
 35  31  33  1   
 36  31  34  1   
 37  34  35  1   
 38  34  36  1   
 39  37  38  1   
 40  37  39  1   
 41  39  40  1   
 42  39  41  1   
 43  39  42  1   
 44  42  43  ar  
 45  42  51  ar  
 46  43  44  1   
 47  43  45  ar  
 48  45  46  1   
 49  45  47  ar  
 50  47  48  1   
 51  47  49  ar  
 52  49  50  1   
 53  49  51  ar  
 54  51  52  1   
@<TRIPOS>SUBSTRUCTURE
  1 Q53U   8 GROUP 4 H **** 0

# MOE 2018.01 (io_trps.svl 2018.01)
